
     RDKit          3D

 24 25  0  0  0  0  0  0  0  0999 V2000
   15.1007   53.1227   15.5399 C   0  0  0  0  0  0  0  0  0  0  0  0
   15.6837   52.0347   14.8211 N   0  0  0  0  0  0  0  0  0  0  0  0
   16.1391   52.2022   13.4754 C   0  0  0  0  0  0  0  0  0  0  0  0
   16.1285   53.5892   12.9839 C   0  0  0  0  0  0  0  0  0  0  0  0
   15.2979   54.5606   13.5010 C   0  0  0  0  0  0  0  0  0  0  0  0
   15.2818   55.8551   13.0411 C   0  0  0  0  0  0  0  0  0  0  0  0
   16.1281   56.2042   12.0209 C   0  0  0  0  0  0  0  0  0  0  0  0
   16.9878   55.2595   11.4631 C   0  0  0  0  0  0  0  0  0  0  0  0
   17.8530   55.6665   10.3999 C   0  0  0  0  0  0  0  0  0  0  0  0
   18.5753   55.9842    9.5295 N   0  0  0  0  0  0  0  0  0  0  0  0
   16.9698   53.9596   11.9610 C   0  0  0  0  0  0  0  0  0  0  0  0
   15.8107   50.7579   15.4702 C   0  0  0  0  0  0  0  0  0  0  0  0
   16.4389   49.8288   14.9014 O   0  0  0  0  0  0  0  0  0  0  0  0
   15.2493   50.5067   16.7369 N   0  0  0  0  0  0  0  0  0  0  0  0
   15.4241   49.4360   17.6493 C   0  0  0  0  0  0  0  0  0  0  0  0
   14.4184   48.3778   17.7899 C   0  0  0  0  0  0  0  0  0  0  0  0
   14.2678   47.7034   16.4360 C   0  0  0  0  0  0  0  0  0  0  0  0
   13.0764   48.8747   18.2086 C   0  0  0  0  0  0  0  0  0  0  0  0
   14.7903   47.3859   18.8007 N   0  0  0  0  0  0  0  0  0  0  0  0
   15.9937   46.7221   18.4318 C   0  0  0  0  0  0  0  0  0  0  0  0
   16.9417   46.5301   19.6042 C   0  0  0  0  0  0  0  0  0  0  0  0
   16.3477   46.0076   20.7237 O   0  0  0  0  0  0  0  0  0  0  0  0
   15.1691   46.6384   21.0055 C   0  0  0  0  0  0  0  0  0  0  0  0
   14.9112   47.8748   20.1263 C   0  0  0  0  0  0  0  0  0  0  0  0
  1  2  1  0
  2  3  1  0
  3  4  1  0
  4  5  2  0
  5  6  1  0
  6  7  2  0
  7  8  1  0
  8  9  1  0
  9 10  3  0
  8 11  2  0
  2 12  1  0
 12 13  2  0
 12 14  1  0
 14 15  1  0
 15 16  1  0
 16 17  1  0
 16 18  1  0
 16 19  1  0
 19 20  1  0
 20 21  1  0
 21 22  1  0
 22 23  1  0
 23 24  1  0
 11  4  1  0
 24 19  1  0
M  END
$$$$
