
     RDKit          3D

 20 21  0  0  0  0  0  0  0  0999 V2000
   13.8740   57.0080   12.1381 C   0  0  0  0  0  0  0  0  0  0  0  0
   15.2899   57.2762   12.6151 C   0  0  0  0  0  0  0  0  0  0  0  0
   16.0911   56.0944   12.4590 N   0  0  0  0  0  0  0  0  0  0  0  0
   17.0364   55.9233   11.4912 C   0  0  0  0  0  0  0  0  0  0  0  0
   17.5704   54.6761   11.6815 C   0  0  0  0  0  0  0  0  0  0  0  0
   16.9480   54.1011   12.7592 C   0  0  0  0  0  0  0  0  0  0  0  0
   17.1722   52.7856   13.3462 C   0  0  0  0  0  0  0  0  0  0  0  0
   18.0092   51.9710   12.8683 O   0  0  0  0  0  0  0  0  0  0  0  0
   16.4541   52.3584   14.4904 N   0  0  0  0  0  0  0  0  0  0  0  0
   16.4947   51.0028   15.0031 C   0  0  0  0  0  0  0  0  0  0  0  0
   17.1428   50.9392   16.3642 C   0  0  0  0  0  0  0  0  0  0  0  0
   16.1091   50.1298   17.1875 C   0  0  0  0  0  0  0  0  0  0  0  0
   14.9798   50.1329   17.4588 N   0  0  0  0  0  0  0  0  0  0  0  0
   14.3025   49.3069   18.2076 C   0  0  0  0  0  0  0  0  0  0  0  0
   12.8093   49.4718   18.4525 C   0  0  0  0  0  0  0  0  0  0  0  0
   12.1758   49.6436   17.0903 C   0  0  0  0  0  0  0  0  0  0  0  0
   12.3058   48.2003   19.1120 C   0  0  0  0  0  0  0  0  0  0  0  0
   15.0312   48.2634   18.7698 C   0  0  0  0  0  0  0  0  0  0  0  0
   16.7005   48.6466   18.0943 S   0  0  0  0  0  0  0  0  0  0  0  0
   16.0334   55.0019   13.2245 N   0  0  0  0  0  0  0  0  0  0  0  0
  1  2  1  0
  2  3  1  0
  3  4  1  0
  4  5  2  0
  5  6  1  0
  6  7  1  0
  7  8  2  0
  7  9  1  0
  9 10  1  0
 10 11  1  0
 11 12  1  0
 12 13  2  0
 13 14  1  0
 14 15  1  0
 15 16  1  0
 15 17  1  0
 14 18  2  0
 18 19  1  0
  6 20  2  0
 20  3  1  0
 19 12  1  0
M  END
$$$$
