
     RDKit          3D

 22 24  0  0  0  0  0  0  0  0999 V2000
   38.6227   82.3497   48.5983 C   0  0  0  0  0  0  0  0  0  0  0  0
   38.7538   81.8591   49.9018 O   0  0  0  0  0  0  0  0  0  0  0  0
   37.7157   81.7754   50.8077 C   0  0  0  0  0  0  0  0  0  0  0  0
   36.4307   82.0815   50.4153 C   0  0  0  0  0  0  0  0  0  0  0  0
   35.3549   82.0168   51.2725 C   0  0  0  0  0  0  0  0  0  0  0  0
   33.9856   82.3369   50.8773 C   0  0  0  0  0  0  0  0  0  0  0  0
   33.7720   82.9237   49.7604 O   0  0  0  0  0  0  0  0  0  0  0  0
   32.8443   82.0468   51.6426 N   0  0  0  0  0  0  0  0  0  0  0  0
   31.5576   82.4816   51.2399 C   0  0  0  0  0  0  0  0  0  0  0  0
   31.0287   82.3715   49.9609 C   0  0  0  0  0  0  0  0  0  0  0  0
   31.6680   81.7923   48.7612 C   0  0  0  0  0  0  0  0  0  0  0  0
   29.8014   82.9060   50.0388 N   0  0  0  0  0  0  0  0  0  0  0  0
   29.5545   83.3282   51.2676 N   0  0  0  0  0  0  0  0  0  0  0  0
   30.6086   83.0930   52.0638 C   0  0  0  0  0  0  0  0  0  0  0  0
   30.7812   83.3971   53.5149 C   0  0  0  0  0  0  0  0  0  0  0  0
   35.6197   81.6248   52.5685 C   0  0  0  0  0  0  0  0  0  0  0  0
   36.8884   81.3083   53.0086 C   0  0  0  0  0  0  0  0  0  0  0  0
   37.9379   81.3888   52.1080 C   0  0  0  0  0  0  0  0  0  0  0  0
   39.2128   81.0639   52.5756 O   0  0  0  0  0  0  0  0  0  0  0  0
   39.4784   80.9326   53.9643 C   0  0  0  0  0  0  0  0  0  0  0  0
   38.3241   80.1517   54.5546 C   0  0  0  0  0  0  0  0  0  0  0  0
   37.1551   80.9140   54.3120 O   0  0  0  0  0  0  0  0  0  0  0  0
  1  2  1  0
  2  3  1  0
  3  4  2  0
  4  5  1  0
  5  6  1  0
  6  7  2  0
  6  8  1  0
  8  9  1  0
  9 10  1  0
 10 11  1  0
 10 12  2  0
 12 13  1  0
 13 14  1  0
 14 15  1  0
  5 16  2  0
 16 17  1  0
 17 18  2  0
 18 19  1  0
 19 20  1  0
 20 21  1  0
 21 22  1  0
 18  3  1  0
 14  9  2  0
 22 17  1  0
M  END
$$$$
