
     RDKit          3D

 17 18  0  0  0  0  0  0  0  0999 V2000
   37.8941   82.4700   52.6060 C   0  0  0  0  0  0  0  0  0  0  0  0
   36.7318   81.7881   52.0407 N   0  0  0  0  0  0  0  0  0  0  0  0
   35.5048   82.3751   52.5822 C   0  0  0  0  0  0  0  0  0  0  0  0
   34.6414   83.0047   51.5447 C   0  0  0  0  0  0  0  0  0  0  0  0
   33.3698   82.3104   51.3347 N   0  0  0  0  0  0  0  0  0  0  0  0
   32.6074   81.7399   52.4251 C   0  0  0  0  0  0  0  0  0  0  0  0
   31.2314   82.3168   52.5790 C   0  0  0  0  0  0  0  0  0  0  0  0
   31.2313   83.6221   53.3457 C   0  0  0  0  0  0  0  0  0  0  0  0
   30.4035   81.3375   53.4215 C   0  0  0  0  0  0  0  0  0  0  0  0
   30.3743   82.4588   50.9915 S   0  0  0  0  0  0  0  0  0  0  0  0
   31.5599   82.2470   49.6869 C   0  0  0  0  0  0  0  0  0  0  0  0
   31.1304   82.1332   48.3689 C   0  0  0  0  0  0  0  0  0  0  0  0
   32.0769   81.9819   47.3977 C   0  0  0  0  0  0  0  0  0  0  0  0
   33.4363   81.9388   47.6810 C   0  0  0  0  0  0  0  0  0  0  0  0
   34.3757   81.7800   46.6366 N   0  0  0  0  0  0  0  0  0  0  0  0
   33.8799   82.0503   48.9866 C   0  0  0  0  0  0  0  0  0  0  0  0
   32.9019   82.2046   49.9742 C   0  0  0  0  0  0  0  0  0  0  0  0
  1  2  1  0
  2  3  1  0
  3  4  1  0
  4  5  1  0
  5  6  1  0
  6  7  1  0
  7  8  1  0
  7  9  1  0
  7 10  1  0
 10 11  1  0
 11 12  2  0
 12 13  1  0
 13 14  2  0
 14 15  1  0
 14 16  1  0
 16 17  2  0
 17  5  1  0
 17 11  1  0
M  END
$$$$
