
     RDKit          3D

 22 23  0  0  0  0  0  0  0  0999 V2000
   42.4272   81.0148   54.2165 C   0  0  0  0  0  0  0  0  0  0  0  0
   41.0500   81.2283   54.1900 O   0  0  0  0  0  0  0  0  0  0  0  0
   40.7447   82.4515   53.5753 C   0  0  0  0  0  0  0  0  0  0  0  0
   39.9032   82.2878   52.3605 C   0  0  0  0  0  0  0  0  0  0  0  0
   38.5664   82.3806   52.5390 O   0  0  0  0  0  0  0  0  0  0  0  0
   37.4463   82.1241   51.8854 C   0  0  0  0  0  0  0  0  0  0  0  0
   37.2683   82.2069   50.5027 C   0  0  0  0  0  0  0  0  0  0  0  0
   36.0667   81.9394   49.9230 C   0  0  0  0  0  0  0  0  0  0  0  0
   34.9976   81.5770   50.6894 C   0  0  0  0  0  0  0  0  0  0  0  0
   33.6315   81.4654   50.1322 N   0  0  0  0  0  0  0  0  0  0  0  0
   32.6267   81.9912   50.9530 C   0  0  0  0  0  0  0  0  0  0  0  0
   32.9878   82.3764   52.1193 O   0  0  0  0  0  0  0  0  0  0  0  0
   31.2058   82.1138   50.5347 C   0  0  0  0  0  0  0  0  0  0  0  0
   30.9968   81.7947   49.1257 C   0  0  0  0  0  0  0  0  0  0  0  0
   30.8242   81.5535   47.9678 N   0  0  0  0  0  0  0  0  0  0  0  0
   30.7729   83.5599   50.7121 C   0  0  0  0  0  0  0  0  0  0  0  0
   29.6833   83.5476   51.7405 C   0  0  0  0  0  0  0  0  0  0  0  0
   29.8620   82.2387   52.4908 C   0  0  0  0  0  0  0  0  0  0  0  0
   30.2977   81.2795   51.3907 C   0  0  0  0  0  0  0  0  0  0  0  0
   35.1009   81.4648   52.0579 C   0  0  0  0  0  0  0  0  0  0  0  0
   36.3185   81.7415   52.6239 C   0  0  0  0  0  0  0  0  0  0  0  0
   36.4608   81.6652   53.9808 F   0  0  0  0  0  0  0  0  0  0  0  0
  1  2  1  0
  2  3  1  0
  3  4  1  0
  4  5  1  0
  5  6  1  0
  6  7  2  0
  7  8  1  0
  8  9  2  0
  9 10  1  0
 10 11  1  0
 11 12  2  0
 11 13  1  0
 13 14  1  0
 14 15  3  0
 13 16  1  0
 16 17  1  0
 17 18  1  0
 18 19  1  0
  9 20  1  0
 20 21  2  0
 21 22  1  0
 21  6  1  0
 19 13  1  0
M  END
$$$$
