
     RDKit          3D

 28 31  0  0  0  0  0  0  0  0999 V2000
   12.8681   49.7343   17.6078 C   0  0  0  0  0  0  0  0  0  0  0  0
   14.0696   50.3336   17.1620 O   0  0  0  0  0  0  0  0  0  0  0  0
   15.2937   49.6403   17.2198 C   0  0  0  0  0  0  0  0  0  0  0  0
   15.3657   48.3941   17.8178 C   0  0  0  0  0  0  0  0  0  0  0  0
   16.5990   47.7799   17.8347 C   0  0  0  0  0  0  0  0  0  0  0  0
   17.7340   48.3572   17.2864 C   0  0  0  0  0  0  0  0  0  0  0  0
   17.6016   49.5996   16.7041 C   0  0  0  0  0  0  0  0  0  0  0  0
   16.3837   50.2736   16.6542 C   0  0  0  0  0  0  0  0  0  0  0  0
   16.2773   51.5601   16.0437 N   0  0  0  0  0  0  0  0  0  0  0  0
   14.9383   52.0886   15.8685 C   0  0  0  0  0  0  0  0  0  0  0  0
   14.9392   53.2456   14.8896 C   0  0  0  0  0  0  0  0  0  0  0  0
   16.0172   54.1179   15.2674 N   0  0  0  0  0  0  0  0  0  0  0  0
   15.8602   55.4488   14.7907 C   0  0  0  0  0  0  0  0  0  0  0  0
   15.4350   55.5519   13.3472 C   0  0  0  0  0  0  0  0  0  0  0  0
   14.6809   56.8261   13.1902 C   0  0  0  0  0  0  0  0  0  0  0  0
   14.9188   57.9801   13.8189 N   0  0  0  0  0  0  0  0  0  0  0  0
   14.0365   58.9244   13.4304 C   0  0  0  0  0  0  0  0  0  0  0  0
   13.8157   60.2138   13.7246 N   0  0  0  0  0  0  0  0  0  0  0  0
   12.8403   60.9310   13.1734 C   0  0  0  0  0  0  0  0  0  0  0  0
   12.6055   62.2982   13.4846 N   0  0  0  0  0  0  0  0  0  0  0  0
   12.0287   60.3426   12.2741 N   0  0  0  0  0  0  0  0  0  0  0  0
   12.1988   59.0484   11.9356 C   0  0  0  0  0  0  0  0  0  0  0  0
   11.3522   58.4601   11.0070 O   0  0  0  0  0  0  0  0  0  0  0  0
   13.2136   58.3139   12.5134 C   0  0  0  0  0  0  0  0  0  0  0  0
   13.6280   57.0378   12.3861 N   0  0  0  0  0  0  0  0  0  0  0  0
   13.0054   56.0795   11.5072 C   0  0  0  0  0  0  0  0  0  0  0  0
   17.2567   53.5060   14.9121 C   0  0  0  0  0  0  0  0  0  0  0  0
   17.4840   52.2217   15.6563 C   0  0  0  0  0  0  0  0  0  0  0  0
  1  2  1  0
  2  3  1  0
  3  4  2  0
  4  5  1  0
  5  6  2  0
  6  7  1  0
  7  8  2  0
  8  9  1  0
  9 10  1  0
 10 11  1  0
 11 12  1  0
 12 13  1  0
 13 14  1  0
 14 15  1  0
 15 16  2  0
 16 17  1  0
 17 18  2  0
 18 19  1  0
 19 20  1  0
 19 21  2  0
 21 22  1  0
 22 23  1  0
 22 24  2  0
 24 25  1  0
 25 26  1  0
 12 27  1  0
 27 28  1  0
  8  3  1  0
 28  9  1  0
 25 15  1  0
 24 17  1  0
M  END
$$$$
