
     RDKit          3D

 21 22  0  0  0  0  0  0  0  0999 V2000
   32.5347   82.8734   46.7428 N   0  0  0  0  0  0  0  0  0  0  0  0
   33.5317   81.8659   47.0741 C   0  0  0  0  0  0  0  0  0  0  0  0
   33.5469   80.7319   46.1728 N   0  0  0  0  0  0  0  0  0  0  0  0
   34.2407   82.0253   48.0236 N   0  0  0  0  0  0  0  0  0  0  0  0
   35.0904   82.1670   48.9547 N   0  0  0  0  0  0  0  0  0  0  0  0
   34.8617   82.1194   50.2895 C   0  0  0  0  0  0  0  0  0  0  0  0
   33.5219   82.1703   50.6922 C   0  0  0  0  0  0  0  0  0  0  0  0
   32.5433   82.9845   50.5989 C   0  0  0  0  0  0  0  0  0  0  0  0
   31.1681   82.7066   51.1144 C   0  0  0  0  0  0  0  0  0  0  0  0
   30.2494   83.7331   51.1757 C   0  0  0  0  0  0  0  0  0  0  0  0
   28.9628   83.5518   51.6335 C   0  0  0  0  0  0  0  0  0  0  0  0
   28.5374   82.3167   52.0545 C   0  0  0  0  0  0  0  0  0  0  0  0
   29.4345   81.2797   52.0028 C   0  0  0  0  0  0  0  0  0  0  0  0
   30.7437   81.4783   51.5339 C   0  0  0  0  0  0  0  0  0  0  0  0
   36.0803   82.0274   51.0487 C   0  0  0  0  0  0  0  0  0  0  0  0
   37.3335   82.4079   50.6389 C   0  0  0  0  0  0  0  0  0  0  0  0
   38.4621   82.2854   51.4310 C   0  0  0  0  0  0  0  0  0  0  0  0
   38.4143   81.7681   52.7023 C   0  0  0  0  0  0  0  0  0  0  0  0
   37.1733   81.3800   53.1365 C   0  0  0  0  0  0  0  0  0  0  0  0
   36.0538   81.4970   52.3615 C   0  0  0  0  0  0  0  0  0  0  0  0
   34.5049   80.9716   53.0056 Cl  0  0  0  0  0  0  0  0  0  0  0  0
  1  2  1  0
  2  3  1  0
  2  4  2  3
  4  5  1  0
  5  6  2  3
  6  7  1  0
  7  8  2  3
  8  9  1  0
  9 10  2  0
 10 11  1  0
 11 12  2  0
 12 13  1  0
 13 14  2  0
  6 15  1  0
 15 16  2  0
 16 17  1  0
 17 18  2  0
 18 19  1  0
 19 20  2  0
 20 21  1  0
 14  9  1  0
 20 15  1  0
M  END
$$$$
