
     RDKit          3D

 19 21  0  0  0  0  0  0  0  0999 V2000
   12.7368   96.4953   58.0688 O   0  0  0  0  0  0  0  0  0  0  0  0
   12.2862   97.4645   58.7832 C   0  0  0  0  0  0  0  0  0  0  0  0
   12.3300   97.3941   60.1579 C   0  0  0  0  0  0  0  0  0  0  0  0
   11.8472   98.4316   60.9387 C   0  0  0  0  0  0  0  0  0  0  0  0
   11.3164   99.5502   60.3379 C   0  0  0  0  0  0  0  0  0  0  0  0
   11.2969   99.5693   58.9532 C   0  0  0  0  0  0  0  0  0  0  0  0
   11.7676   98.5569   58.2103 N   0  0  0  0  0  0  0  0  0  0  0  0
   11.7263   98.6292   56.7603 C   0  0  0  0  0  0  0  0  0  0  0  0
   12.9106   99.2661   56.1732 C   0  0  0  0  0  0  0  0  0  0  0  0
   14.0642   99.7491   56.8038 C   0  0  0  0  0  0  0  0  0  0  0  0
   14.8997  100.2596   55.9027 N   0  0  0  0  0  0  0  0  0  0  0  0
   16.1063  100.8230   56.0780 C   0  0  0  0  0  0  0  0  0  0  0  0
   16.8468  101.3080   55.0155 C   0  0  0  0  0  0  0  0  0  0  0  0
   16.3058  101.1955   53.7580 C   0  0  0  0  0  0  0  0  0  0  0  0
   15.0752  100.6168   53.6116 C   0  0  0  0  0  0  0  0  0  0  0  0
   14.3508  100.1387   54.6828 C   0  0  0  0  0  0  0  0  0  0  0  0
   13.1233   99.5260   54.8467 C   0  0  0  0  0  0  0  0  0  0  0  0
   12.2126   99.2147   53.7167 C   0  0  0  0  0  0  0  0  0  0  0  0
   12.7588   98.2977   52.8249 O   0  0  0  0  0  0  0  0  0  0  0  0
  1  2  2  0
  2  3  1  0
  3  4  2  0
  4  5  1  0
  5  6  2  0
  6  7  1  0
  7  8  1  0
  8  9  1  0
  9 10  2  0
 10 11  1  0
 11 12  1  0
 12 13  2  0
 13 14  1  0
 14 15  2  0
 15 16  1  0
 16 17  2  0
 17 18  1  0
 18 19  1  0
  7  2  1  0
 17  9  1  0
 16 11  1  0
M  END
$$$$
