
     RDKit          3D

 22 24  0  0  0  0  0  0  0  0999 V2000
   36.6382   82.6196   49.9426 N   0  0  0  0  0  0  0  0  0  0  0  0
   36.4848   82.2235   51.2881 C   0  0  0  0  0  0  0  0  0  0  0  0
   35.0376   82.2032   51.7433 C   0  0  0  0  0  0  0  0  0  0  0  0
   34.2544   83.2636   51.1746 N   0  0  0  0  0  0  0  0  0  0  0  0
   33.5814   82.8250   49.9975 C   0  0  0  0  0  0  0  0  0  0  0  0
   32.2403   82.3023   50.3593 C   0  0  0  0  0  0  0  0  0  0  0  0
   31.5822   81.3578   49.6283 C   0  0  0  0  0  0  0  0  0  0  0  0
   30.3227   80.8642   49.9627 C   0  0  0  0  0  0  0  0  0  0  0  0
   29.7403   81.3830   51.1034 C   0  0  0  0  0  0  0  0  0  0  0  0
   30.3541   82.3436   51.8912 C   0  0  0  0  0  0  0  0  0  0  0  0
   29.5905   82.9903   53.3451 Cl  0  0  0  0  0  0  0  0  0  0  0  0
   31.6010   82.7910   51.5048 C   0  0  0  0  0  0  0  0  0  0  0  0
   37.0633   80.8332   51.4576 C   0  0  0  0  0  0  0  0  0  0  0  0
   37.5665   80.5565   52.8148 C   0  0  0  0  0  0  0  0  0  0  0  0
   36.7535   80.5182   53.9227 C   0  0  0  0  0  0  0  0  0  0  0  0
   37.4950   80.2148   54.9919 N   0  0  0  0  0  0  0  0  0  0  0  0
   38.7692   80.0563   54.6006 C   0  0  0  0  0  0  0  0  0  0  0  0
   39.9279   79.7506   55.2902 C   0  0  0  0  0  0  0  0  0  0  0  0
   41.1597   79.6496   54.6435 C   0  0  0  0  0  0  0  0  0  0  0  0
   41.2011   79.8635   53.2868 C   0  0  0  0  0  0  0  0  0  0  0  0
   40.0619   80.1698   52.5740 C   0  0  0  0  0  0  0  0  0  0  0  0
   38.8374   80.2657   53.2413 C   0  0  0  0  0  0  0  0  0  0  0  0
  1  2  1  0
  2  3  1  0
  3  4  1  0
  4  5  1  0
  5  6  1  0
  6  7  2  0
  7  8  1  0
  8  9  2  0
  9 10  1  0
 10 11  1  0
 10 12  2  0
  2 13  1  0
 13 14  1  0
 14 15  2  0
 15 16  1  0
 16 17  1  0
 17 18  2  0
 18 19  1  0
 19 20  2  0
 20 21  1  0
 21 22  2  0
 12  6  1  0
 22 14  1  0
 22 17  1  0
M  END
$$$$
