
     RDKit          3D

 22 24  0  0  0  0  0  0  0  0999 V2000
   16.5395   56.6411   10.9932 C   0  0  0  0  0  0  0  0  0  0  0  0
   16.3305   55.4964   11.9115 C   0  0  0  0  0  0  0  0  0  0  0  0
   17.4063   54.7408   12.3251 C   0  0  0  0  0  0  0  0  0  0  0  0
   17.2279   53.6580   13.1906 C   0  0  0  0  0  0  0  0  0  0  0  0
   15.9883   53.3073   13.6590 C   0  0  0  0  0  0  0  0  0  0  0  0
   15.7320   52.2686   14.5049 O   0  0  0  0  0  0  0  0  0  0  0  0
   16.5413   51.6869   15.4596 C   0  0  0  0  0  0  0  0  0  0  0  0
   16.0274   50.4091   16.0243 C   0  0  0  0  0  0  0  0  0  0  0  0
   14.9957   49.9042   15.4912 O   0  0  0  0  0  0  0  0  0  0  0  0
   16.6826   49.7882   17.1243 N   0  0  0  0  0  0  0  0  0  0  0  0
   17.8233   50.4664   17.7002 C   0  0  0  0  0  0  0  0  0  0  0  0
   18.8875   49.4143   17.9718 C   0  0  0  0  0  0  0  0  0  0  0  0
   18.3079   48.4319   18.9314 C   0  0  0  0  0  0  0  0  0  0  0  0
   17.0992   47.7157   18.4052 C   0  0  0  0  0  0  0  0  0  0  0  0
   16.1762   48.5352   17.5944 C   0  0  0  0  0  0  0  0  0  0  0  0
   14.9183   48.7265   18.3707 C   0  0  0  0  0  0  0  0  0  0  0  0
   14.5884   48.1653   19.5866 C   0  0  0  0  0  0  0  0  0  0  0  0
   13.3339   48.6068   19.9453 C   0  0  0  0  0  0  0  0  0  0  0  0
   12.9440   49.4400   18.9041 C   0  0  0  0  0  0  0  0  0  0  0  0
   13.9001   49.4612   18.0386 O   0  0  0  0  0  0  0  0  0  0  0  0
   14.9106   54.0832   13.2298 C   0  0  0  0  0  0  0  0  0  0  0  0
   15.0768   55.1541   12.3752 C   0  0  0  0  0  0  0  0  0  0  0  0
  1  2  1  0
  2  3  2  0
  3  4  1  0
  4  5  2  0
  5  6  1  0
  6  7  1  0
  7  8  1  0
  8  9  2  0
  8 10  1  0
 10 11  1  0
 11 12  1  0
 12 13  1  0
 13 14  1  0
 14 15  1  0
 15 16  1  0
 16 17  2  0
 17 18  1  0
 18 19  2  0
 19 20  1  0
  5 21  1  0
 21 22  2  0
 22  2  1  0
 15 10  1  0
 20 16  1  0
M  END
$$$$
