
     RDKit          3D

 27 30  0  0  0  0  0  0  0  0999 V2000
   12.2631   49.0253   18.7968 C   0  0  0  0  0  0  0  0  0  0  0  0
   13.3976   49.0678   17.9542 O   0  0  0  0  0  0  0  0  0  0  0  0
   14.5841   48.5261   18.4138 C   0  0  0  0  0  0  0  0  0  0  0  0
   14.7031   48.0436   19.6562 N   0  0  0  0  0  0  0  0  0  0  0  0
   15.8338   47.5067   20.1521 C   0  0  0  0  0  0  0  0  0  0  0  0
   16.9282   47.4594   19.3123 C   0  0  0  0  0  0  0  0  0  0  0  0
   16.8693   47.9450   18.0081 C   0  0  0  0  0  0  0  0  0  0  0  0
   15.6890   48.4806   17.5598 C   0  0  0  0  0  0  0  0  0  0  0  0
   15.5090   49.0289   16.1868 C   0  0  0  0  0  0  0  0  0  0  0  0
   16.5083   50.1447   16.0123 C   0  0  0  0  0  0  0  0  0  0  0  0
   16.3438   50.8710   14.7480 C   0  0  0  0  0  0  0  0  0  0  0  0
   16.2781   50.2310   13.6794 O   0  0  0  0  0  0  0  0  0  0  0  0
   16.2579   52.2789   14.7092 N   0  0  0  0  0  0  0  0  0  0  0  0
   16.9458   53.1452   15.6575 C   0  0  0  0  0  0  0  0  0  0  0  0
   17.6156   54.2330   14.8263 C   0  0  0  0  0  0  0  0  0  0  0  0
   17.7153   53.8496   13.3764 C   0  0  0  0  0  0  0  0  0  0  0  0
   16.3218   53.7575   12.7565 C   0  0  0  0  0  0  0  0  0  0  0  0
   15.7819   55.1018   12.4582 C   0  0  0  0  0  0  0  0  0  0  0  0
   14.5234   55.4975   12.6972 N   0  0  0  0  0  0  0  0  0  0  0  0
   14.4008   56.7776   12.2967 C   0  0  0  0  0  0  0  0  0  0  0  0
   13.3005   57.6308   12.3325 C   0  0  0  0  0  0  0  0  0  0  0  0
   13.4783   58.8923   11.8492 C   0  0  0  0  0  0  0  0  0  0  0  0
   14.6998   59.3083   11.3443 C   0  0  0  0  0  0  0  0  0  0  0  0
   15.7615   58.4326   11.3276 C   0  0  0  0  0  0  0  0  0  0  0  0
   15.6196   57.1493   11.8077 C   0  0  0  0  0  0  0  0  0  0  0  0
   16.4244   56.1066   11.9244 O   0  0  0  0  0  0  0  0  0  0  0  0
   15.4619   52.9888   13.7019 C   0  0  0  0  0  0  0  0  0  0  0  0
  1  2  1  0
  2  3  1  0
  3  4  2  0
  4  5  1  0
  5  6  2  0
  6  7  1  0
  7  8  2  0
  8  9  1  0
  9 10  1  0
 10 11  1  0
 11 12  2  0
 11 13  1  0
 13 14  1  0
 14 15  1  0
 15 16  1  0
 16 17  1  0
 17 18  1  0
 18 19  2  0
 19 20  1  0
 20 21  2  0
 21 22  1  0
 22 23  2  0
 23 24  1  0
 24 25  2  0
 25 26  1  0
 17 27  1  0
  8  3  1  0
 27 13  1  0
 26 18  1  0
 25 20  1  0
M  END
$$$$
