
     RDKit          3D

 35 40  0  0  0  0  0  0  0  0999 V2000
   13.6016   99.6472   51.5788 C   0  0  0  0  0  0  0  0  0  0  0  0
   13.7723  100.1203   52.9016 O   0  0  0  0  0  0  0  0  0  0  0  0
   15.0732  100.3304   53.3415 C   0  0  0  0  0  0  0  0  0  0  0  0
   16.1733  100.1540   52.5085 C   0  0  0  0  0  0  0  0  0  0  0  0
   17.4509  100.3685   52.9681 C   0  0  0  0  0  0  0  0  0  0  0  0
   17.6097  100.7535   54.2444 N   0  0  0  0  0  0  0  0  0  0  0  0
   16.5538  100.9297   55.0672 C   0  0  0  0  0  0  0  0  0  0  0  0
   15.2583  100.7257   54.6472 C   0  0  0  0  0  0  0  0  0  0  0  0
   14.1124  100.9001   55.4838 N   0  0  0  0  0  0  0  0  0  0  0  0
   13.6257   99.8741   56.3182 C   0  0  0  0  0  0  0  0  0  0  0  0
   14.2767   98.7732   56.2897 O   0  0  0  0  0  0  0  0  0  0  0  0
   12.4550  100.0215   57.1752 C   0  0  0  0  0  0  0  0  0  0  0  0
   11.5426  101.0418   57.0561 C   0  0  0  0  0  0  0  0  0  0  0  0
   10.4354  101.1552   57.8891 C   0  0  0  0  0  0  0  0  0  0  0  0
   10.2013  100.2336   58.8872 C   0  0  0  0  0  0  0  0  0  0  0  0
   11.1075   99.2021   59.0215 C   0  0  0  0  0  0  0  0  0  0  0  0
   12.2052   99.0968   58.1892 C   0  0  0  0  0  0  0  0  0  0  0  0
   10.6829   98.3671   60.1057 N   0  0  0  0  0  0  0  0  0  0  0  0
   11.5025   97.3776   60.6963 C   0  0  0  0  0  0  0  0  0  0  0  0
   10.9123   96.4784   61.5158 N   0  0  0  0  0  0  0  0  0  0  0  0
   11.5835   95.4954   62.1332 C   0  0  0  0  0  0  0  0  0  0  0  0
   12.9312   95.3871   61.9318 C   0  0  0  0  0  0  0  0  0  0  0  0
   13.7090   94.3383   62.5774 C   0  0  0  0  0  0  0  0  0  0  0  0
   13.7633   94.1945   63.9362 C   0  0  0  0  0  0  0  0  0  0  0  0
   14.5103   93.1897   64.5142 C   0  0  0  0  0  0  0  0  0  0  0  0
   15.2331   92.2883   63.7609 C   0  0  0  0  0  0  0  0  0  0  0  0
   15.1768   92.4364   62.3733 C   0  0  0  0  0  0  0  0  0  0  0  0
   14.4261   93.4455   61.8035 C   0  0  0  0  0  0  0  0  0  0  0  0
   14.3995   93.5532   60.4454 F   0  0  0  0  0  0  0  0  0  0  0  0
   13.5347   96.3025   61.0970 C   0  0  0  0  0  0  0  0  0  0  0  0
   12.8069   97.2649   60.5075 N   0  0  0  0  0  0  0  0  0  0  0  0
    9.3132   98.7261   60.4557 C   0  0  0  0  0  0  0  0  0  0  0  0
    9.1292  100.1035   59.9006 C   0  0  0  0  0  0  0  0  0  0  0  0
    8.5985  101.2294   60.6587 C   0  0  0  0  0  0  0  0  0  0  0  0
    7.7529  100.6310   59.5965 C   0  0  0  0  0  0  0  0  0  0  0  0
  1  2  1  0
  2  3  1  0
  3  4  2  0
  4  5  1  0
  5  6  2  0
  6  7  1  0
  7  8  2  0
  8  9  1  0
  9 10  1  0
 10 11  2  0
 10 12  1  0
 12 13  2  0
 13 14  1  0
 14 15  2  0
 15 16  1  0
 16 17  2  0
 16 18  1  0
 18 19  1  0
 19 20  2  0
 20 21  1  0
 21 22  2  0
 22 23  1  0
 23 24  2  0
 24 25  1  0
 25 26  2  0
 26 27  1  0
 27 28  2  0
 28 29  1  0
 22 30  1  0
 30 31  2  0
 18 32  1  0
 32 33  1  0
 33 34  1  0
 34 35  1  0
  8  3  1  0
 17 12  1  0
 31 19  1  0
 35 33  1  0
 33 15  1  0
 28 23  1  0
M  END
$$$$
