
     RDKit          3D

 31 35  0  0  0  0  0  0  0  0999 V2000
   19.0758   56.9253   16.5146 C   0  0  0  0  0  0  0  0  0  0  0  0
   18.3503   58.0083   15.7530 C   0  0  0  0  0  0  0  0  0  0  0  0
   18.9496   59.2190   16.1805 O   0  0  0  0  0  0  0  0  0  0  0  0
   16.8955   58.0899   16.1117 C   0  0  0  0  0  0  0  0  0  0  0  0
   15.9894   57.6124   15.0250 C   0  0  0  0  0  0  0  0  0  0  0  0
   16.5884   56.4754   14.2989 N   0  0  0  0  0  0  0  0  0  0  0  0
   15.9818   55.2278   14.4037 C   0  0  0  0  0  0  0  0  0  0  0  0
   16.7682   54.0995   14.7083 C   0  0  0  0  0  0  0  0  0  0  0  0
   16.2681   52.8383   14.8182 C   0  0  0  0  0  0  0  0  0  0  0  0
   14.9325   52.6094   14.6294 C   0  0  0  0  0  0  0  0  0  0  0  0
   14.1412   53.6758   14.3347 C   0  0  0  0  0  0  0  0  0  0  0  0
   14.6530   54.9871   14.2203 C   0  0  0  0  0  0  0  0  0  0  0  0
   13.7337   56.0252   13.9736 N   0  0  0  0  0  0  0  0  0  0  0  0
   13.1888   56.1140   12.6453 C   0  0  0  0  0  0  0  0  0  0  0  0
   13.4026   55.2034   11.7952 O   0  0  0  0  0  0  0  0  0  0  0  0
   12.3660   57.2367   12.1981 C   0  0  0  0  0  0  0  0  0  0  0  0
   11.2450   57.2805   11.4312 C   0  0  0  0  0  0  0  0  0  0  0  0
   10.8645   58.5567   11.3326 N   0  0  0  0  0  0  0  0  0  0  0  0
   11.6947   59.3492   12.0070 N   0  0  0  0  0  0  0  0  0  0  0  0
   11.6946   60.6746   12.1852 C   0  0  0  0  0  0  0  0  0  0  0  0
   12.6859   61.2526   12.9508 C   0  0  0  0  0  0  0  0  0  0  0  0
   13.6728   60.4340   13.5219 C   0  0  0  0  0  0  0  0  0  0  0  0
   13.5956   59.1116   13.2915 N   0  0  0  0  0  0  0  0  0  0  0  0
   12.6456   58.5450   12.5583 C   0  0  0  0  0  0  0  0  0  0  0  0
   14.7157   51.1472   14.7957 C   0  0  0  0  0  0  0  0  0  0  0  0
   15.9105   50.7594   15.6841 C   0  0  0  0  0  0  0  0  0  0  0  0
   15.5558   51.1992   17.0715 C   0  0  0  0  0  0  0  0  0  0  0  0
   16.2799   49.3209   15.5591 C   0  0  0  0  0  0  0  0  0  0  0  0
   16.8860   51.6300   15.1101 O   0  0  0  0  0  0  0  0  0  0  0  0
   17.7857   56.8390   13.5788 C   0  0  0  0  0  0  0  0  0  0  0  0
   18.5539   57.9698   14.2776 C   0  0  0  0  0  0  0  0  0  0  0  0
  1  2  1  0
  2  3  1  0
  2  4  1  0
  4  5  1  0
  5  6  1  0
  6  7  1  0
  7  8  2  0
  8  9  1  0
  9 10  2  0
 10 11  1  0
 11 12  2  0
 12 13  1  0
 13 14  1  0
 14 15  2  0
 14 16  1  0
 16 17  1  0
 17 18  2  0
 18 19  1  0
 19 20  1  0
 20 21  2  0
 21 22  1  0
 22 23  2  0
 23 24  1  0
 10 25  1  0
 25 26  1  0
 26 27  1  0
 26 28  1  0
 26 29  1  0
  6 30  1  0
 30 31  1  0
 31  2  1  0
 12  7  1  0
 24 16  2  0
 29  9  1  0
 24 19  1  0
M  END
$$$$
