
     RDKit          3D

 15 15  0  0  0  0  0  0  0  0999 V2000
   33.0196   82.9474   52.7565 N   0  0  0  0  0  0  0  0  0  0  0  0
   32.6188   82.6084   51.7269 C   0  0  0  0  0  0  0  0  0  0  0  0
   32.1163   82.2057   50.4266 C   0  0  0  0  0  0  0  0  0  0  0  0
   32.9755   82.2334   49.3503 C   0  0  0  0  0  0  0  0  0  0  0  0
   34.3237   82.6462   49.5058 N   0  0  0  0  0  0  0  0  0  0  0  0
   32.4896   81.8565   48.1543 N   0  0  0  0  0  0  0  0  0  0  0  0
   31.1968   81.4620   48.0116 C   0  0  0  0  0  0  0  0  0  0  0  0
   30.7225   81.0984   46.8661 N   0  0  0  0  0  0  0  0  0  0  0  0
   30.3472   81.4296   49.0518 N   0  0  0  0  0  0  0  0  0  0  0  0
   30.8127   81.8021   50.2542 C   0  0  0  0  0  0  0  0  0  0  0  0
   30.0126   81.7762   51.2572 N   0  0  0  0  0  0  0  0  0  0  0  0
   29.3133   82.9120   51.7759 C   0  0  0  0  0  0  0  0  0  0  0  0
   28.1595   83.1392   51.0521 F   0  0  0  0  0  0  0  0  0  0  0  0
   28.9929   82.6676   53.1108 F   0  0  0  0  0  0  0  0  0  0  0  0
   30.0681   84.0643   51.7702 F   0  0  0  0  0  0  0  0  0  0  0  0
  1  2  3  0
  2  3  1  0
  3  4  2  0
  4  5  1  0
  4  6  1  0
  6  7  1  0
  7  8  2  0
  7  9  1  0
  9 10  1  0
 10 11  2  3
 11 12  1  0
 12 13  1  0
 12 14  1  0
 12 15  1  0
 10  3  1  0
M  END
$$$$
