
     RDKit          3D

 26 29  0  0  0  0  0  0  0  0999 V2000
   34.9169   81.3702   46.2837 N   0  0  0  0  0  0  0  0  0  0  0  0
   34.6214   81.4868   47.3745 C   0  0  0  0  0  0  0  0  0  0  0  0
   34.2732   81.6423   48.7472 C   0  0  0  0  0  0  0  0  0  0  0  0
   32.8955   81.6052   49.0228 C   0  0  0  0  0  0  0  0  0  0  0  0
   32.4948   81.8513   50.3255 C   0  0  0  0  0  0  0  0  0  0  0  0
   31.1535   81.8365   50.6953 C   0  0  0  0  0  0  0  0  0  0  0  0
   29.9486   81.4968   49.4888 Cl  0  0  0  0  0  0  0  0  0  0  0  0
   30.7547   82.0827   51.9948 C   0  0  0  0  0  0  0  0  0  0  0  0
   31.7129   82.3501   52.9520 C   0  0  0  0  0  0  0  0  0  0  0  0
   31.2808   82.6746   54.6207 Cl  0  0  0  0  0  0  0  0  0  0  0  0
   33.0449   82.3614   52.5708 C   0  0  0  0  0  0  0  0  0  0  0  0
   33.4511   82.1164   51.2766 C   0  0  0  0  0  0  0  0  0  0  0  0
   34.7488   82.1345   50.9496 N   0  0  0  0  0  0  0  0  0  0  0  0
   35.1953   81.8977   49.6810 C   0  0  0  0  0  0  0  0  0  0  0  0
   36.9479   81.8466   49.4680 S   0  0  0  0  0  0  0  0  0  0  0  0
   37.7459   82.2484   51.0054 C   0  0  0  0  0  0  0  0  0  0  0  0
   38.3782   83.4876   51.0852 N   0  0  0  0  0  0  0  0  0  0  0  0
   38.9209   83.5300   52.2594 N   0  0  0  0  0  0  0  0  0  0  0  0
   38.6834   82.4363   52.9046 N   0  0  0  0  0  0  0  0  0  0  0  0
   37.9273   81.5859   52.1225 N   0  0  0  0  0  0  0  0  0  0  0  0
   37.5735   80.2759   52.5942 C   0  0  0  0  0  0  0  0  0  0  0  0
   38.7040   79.4046   52.8927 C   0  0  0  0  0  0  0  0  0  0  0  0
   38.3483   78.2269   53.7874 C   0  0  0  0  0  0  0  0  0  0  0  0
   37.7842   78.6772   55.1084 C   0  0  0  0  0  0  0  0  0  0  0  0
   37.2319   80.0752   55.0662 C   0  0  0  0  0  0  0  0  0  0  0  0
   36.5874   80.4206   53.7426 C   0  0  0  0  0  0  0  0  0  0  0  0
  1  2  3  0
  2  3  1  0
  3  4  2  0
  4  5  1  0
  5  6  2  0
  6  7  1  0
  6  8  1  0
  8  9  2  0
  9 10  1  0
  9 11  1  0
 11 12  2  0
 12 13  1  0
 13 14  2  0
 14 15  1  0
 15 16  1  0
 16 17  2  0
 17 18  1  0
 18 19  2  0
 19 20  1  0
 20 21  1  0
 21 22  1  0
 22 23  1  0
 23 24  1  0
 24 25  1  0
 25 26  1  0
 14  3  1  0
 20 16  1  0
 26 21  1  0
 12  5  1  0
M  END
$$$$
