
     RDKit          3D

 22 25  0  0  0  0  0  0  0  0999 V2000
   14.8643   47.2628   20.6320 C   0  0  0  0  0  0  0  0  0  0  0  0
   15.4181   47.9064   19.3875 C   0  0  0  0  0  0  0  0  0  0  0  0
   14.8686   48.9596   18.7622 N   0  0  0  0  0  0  0  0  0  0  0  0
   15.6448   49.2401   17.7011 C   0  0  0  0  0  0  0  0  0  0  0  0
   15.5715   50.2073   16.7087 C   0  0  0  0  0  0  0  0  0  0  0  0
   16.5034   50.3070   15.6955 C   0  0  0  0  0  0  0  0  0  0  0  0
   16.4119   51.3034   14.6886 N   0  0  0  0  0  0  0  0  0  0  0  0
   16.1598   52.6460   15.0043 C   0  0  0  0  0  0  0  0  0  0  0  0
   15.8466   52.9109   16.2027 O   0  0  0  0  0  0  0  0  0  0  0  0
   16.2366   53.7484   14.0394 C   0  0  0  0  0  0  0  0  0  0  0  0
   15.8863   55.0395   14.4074 C   0  0  0  0  0  0  0  0  0  0  0  0
   15.9624   56.0736   13.4884 C   0  0  0  0  0  0  0  0  0  0  0  0
   16.3812   55.8722   12.1916 C   0  0  0  0  0  0  0  0  0  0  0  0
   16.7302   54.5973   11.8176 C   0  0  0  0  0  0  0  0  0  0  0  0
   16.6537   53.5528   12.7447 C   0  0  0  0  0  0  0  0  0  0  0  0
   17.1126   54.6439   10.4869 O   0  0  0  0  0  0  0  0  0  0  0  0
   17.3114   56.0234   10.1437 C   0  0  0  0  0  0  0  0  0  0  0  0
   16.5472   56.7033   11.0962 O   0  0  0  0  0  0  0  0  0  0  0  0
   17.5334   49.3892   15.7060 C   0  0  0  0  0  0  0  0  0  0  0  0
   17.6362   48.4057   16.6877 C   0  0  0  0  0  0  0  0  0  0  0  0
   16.6853   48.3346   17.6879 C   0  0  0  0  0  0  0  0  0  0  0  0
   16.4873   47.5632   18.7281 O   0  0  0  0  0  0  0  0  0  0  0  0
  1  2  1  0
  2  3  2  0
  3  4  1  0
  4  5  2  0
  5  6  1  0
  6  7  1  0
  7  8  1  0
  8  9  2  0
  8 10  1  0
 10 11  2  0
 11 12  1  0
 12 13  2  0
 13 14  1  0
 14 15  2  0
 14 16  1  0
 16 17  1  0
 17 18  1  0
  6 19  2  0
 19 20  1  0
 20 21  2  0
 21 22  1  0
 22  2  1  0
 21  4  1  0
 15 10  1  0
 18 13  1  0
M  END
$$$$
