
     RDKit          3D

 18 19  0  0  0  0  0  0  0  0999 V2000
   11.8207   96.8608   58.4493 O   0  0  0  0  0  0  0  0  0  0  0  0
   11.9643   97.3969   59.5701 C   0  0  0  0  0  0  0  0  0  0  0  0
   12.5611   96.6567   60.7032 C   0  0  0  0  0  0  0  0  0  0  0  0
   12.0694   95.5146   61.1039 C   0  0  0  0  0  0  0  0  0  0  0  0
   12.6231   94.7743   62.2168 C   0  0  0  0  0  0  0  0  0  0  0  0
   13.9588   94.8157   62.5281 C   0  0  0  0  0  0  0  0  0  0  0  0
   14.4590   94.0965   63.5988 C   0  0  0  0  0  0  0  0  0  0  0  0
   13.6625   93.3190   64.3909 C   0  0  0  0  0  0  0  0  0  0  0  0
   14.3028   92.4015   65.7575 Cl  0  0  0  0  0  0  0  0  0  0  0  0
   12.3227   93.2808   64.0744 C   0  0  0  0  0  0  0  0  0  0  0  0
   11.8045   93.9847   63.0186 C   0  0  0  0  0  0  0  0  0  0  0  0
   11.5431   98.7326   59.7362 N   0  0  0  0  0  0  0  0  0  0  0  0
   11.4660   99.5974   58.5936 C   0  0  0  0  0  0  0  0  0  0  0  0
   11.6690   99.1371   57.3080 C   0  0  0  0  0  0  0  0  0  0  0  0
   11.5842  100.0146   56.2257 C   0  0  0  0  0  0  0  0  0  0  0  0
   11.3056  101.3184   56.4030 N   0  0  0  0  0  0  0  0  0  0  0  0
   11.1025  101.8009   57.6383 C   0  0  0  0  0  0  0  0  0  0  0  0
   11.1825  100.9407   58.7349 C   0  0  0  0  0  0  0  0  0  0  0  0
  1  2  2  0
  2  3  1  0
  3  4  2  0
  4  5  1  0
  5  6  2  0
  6  7  1  0
  7  8  2  0
  8  9  1  0
  8 10  1  0
 10 11  2  0
  2 12  1  0
 12 13  1  0
 13 14  2  0
 14 15  1  0
 15 16  2  0
 16 17  1  0
 17 18  2  0
 11  5  1  0
 18 13  1  0
M  END
$$$$
