
     RDKit          3D

 21 22  0  0  0  0  0  0  0  0999 V2000
   -5.9847   65.7515   30.0395 C   0  0  0  0  0  0  0  0  0  0  0  0
   -4.9297   65.0028   30.7955 C   0  0  0  0  0  0  0  0  0  0  0  0
   -4.8003   63.6459   30.7415 C   0  0  0  0  0  0  0  0  0  0  0  0
   -3.8183   62.9518   31.4455 C   0  0  0  0  0  0  0  0  0  0  0  0
   -3.7188   61.4799   31.3514 C   0  0  0  0  0  0  0  0  0  0  0  0
   -2.8294   61.0792   30.2151 C   0  0  0  0  0  0  0  0  0  0  0  0
   -2.2963   59.6657   30.4095 C   0  0  0  0  0  0  0  0  0  0  0  0
   -1.2533   59.4124   29.4138 C   0  0  0  0  0  0  0  0  0  0  0  0
   -0.4201   59.1924   28.6296 N   0  0  0  0  0  0  0  0  0  0  0  0
   -5.0564   60.8296   31.2117 C   0  0  0  0  0  0  0  0  0  0  0  0
   -5.3960   60.0409   30.1271 C   0  0  0  0  0  0  0  0  0  0  0  0
   -6.6290   59.4454   30.0083 C   0  0  0  0  0  0  0  0  0  0  0  0
   -7.5680   59.6285   30.9898 C   0  0  0  0  0  0  0  0  0  0  0  0
   -9.1441   58.8630   30.8309 Cl  0  0  0  0  0  0  0  0  0  0  0  0
   -7.2699   60.4105   32.0930 C   0  0  0  0  0  0  0  0  0  0  0  0
   -6.0267   60.9889   32.1756 C   0  0  0  0  0  0  0  0  0  0  0  0
   -2.9718   63.7194   32.2107 C   0  0  0  0  0  0  0  0  0  0  0  0
   -3.0714   65.0774   32.2887 C   0  0  0  0  0  0  0  0  0  0  0  0
   -2.1205   65.8752   33.1408 C   0  0  0  0  0  0  0  0  0  0  0  0
   -4.0570   65.7437   31.5786 C   0  0  0  0  0  0  0  0  0  0  0  0
   -4.1550   67.1501   31.6634 N   0  0  0  0  0  0  0  0  0  0  0  0
  1  2  1  0
  2  3  2  0
  3  4  1  0
  4  5  1  0
  5  6  1  0
  6  7  1  0
  7  8  1  0
  8  9  3  0
  5 10  1  0
 10 11  2  0
 11 12  1  0
 12 13  2  0
 13 14  1  0
 13 15  1  0
 15 16  2  0
  4 17  2  0
 17 18  1  0
 18 19  1  0
 18 20  2  0
 20 21  1  0
 20  2  1  0
 16 10  1  0
M  END
$$$$
