
     RDKit          3D

 22 24  0  0  0  0  0  0  0  0999 V2000
   -3.8981   65.2691   30.9767 C   0  0  0  0  0  0  0  0  0  0  0  0
   -4.2050   63.8739   31.3368 N   0  0  0  0  0  0  0  0  0  0  0  0
   -5.3698   63.1701   30.9710 C   0  0  0  0  0  0  0  0  0  0  0  0
   -5.3049   61.8930   31.2871 C   0  0  0  0  0  0  0  0  0  0  0  0
   -6.3480   60.8916   31.0427 C   0  0  0  0  0  0  0  0  0  0  0  0
   -7.6197   61.2779   30.6105 C   0  0  0  0  0  0  0  0  0  0  0  0
   -8.6038   60.3640   30.3802 C   0  0  0  0  0  0  0  0  0  0  0  0
   -8.3810   59.0106   30.5664 C   0  0  0  0  0  0  0  0  0  0  0  0
   -9.3704   58.1142   30.3329 F   0  0  0  0  0  0  0  0  0  0  0  0
   -7.1317   58.6099   30.9929 C   0  0  0  0  0  0  0  0  0  0  0  0
   -6.1281   59.5583   31.2264 C   0  0  0  0  0  0  0  0  0  0  0  0
   -4.9269   59.0901   31.6466 F   0  0  0  0  0  0  0  0  0  0  0  0
   -4.0087   61.6505   31.9272 C   0  0  0  0  0  0  0  0  0  0  0  0
   -3.1322   60.8288   31.0633 C   0  0  0  0  0  0  0  0  0  0  0  0
   -3.4520   60.6076   29.7228 C   0  0  0  0  0  0  0  0  0  0  0  0
   -2.6527   59.8403   28.9044 C   0  0  0  0  0  0  0  0  0  0  0  0
   -1.5161   59.2930   29.4582 C   0  0  0  0  0  0  0  0  0  0  0  0
   -0.7155   58.5271   28.6472 F   0  0  0  0  0  0  0  0  0  0  0  0
   -1.1737   59.4936   30.7787 C   0  0  0  0  0  0  0  0  0  0  0  0
   -1.9976   60.2722   31.5832 C   0  0  0  0  0  0  0  0  0  0  0  0
   -1.6472   60.4577   32.8653 F   0  0  0  0  0  0  0  0  0  0  0  0
   -3.3803   63.0036   32.1122 C   0  0  0  0  0  0  0  0  0  0  0  0
  1  2  1  0
  2  3  1  0
  3  4  2  0
  4  5  1  0
  5  6  2  0
  6  7  1  0
  7  8  2  0
  8  9  1  0
  8 10  1  0
 10 11  2  0
 11 12  1  0
  4 13  1  0
 13 14  1  0
 14 15  2  0
 15 16  1  0
 16 17  2  0
 17 18  1  0
 17 19  1  0
 19 20  2  0
 20 21  1  0
 13 22  1  0
 22  2  1  0
 11  5  1  0
 20 14  1  0
M  END
$$$$
