
     RDKit          3D

 22 23  0  0  0  0  0  0  0  0999 V2000
   -6.3332   60.3087   31.7852 C   0  0  0  0  0  0  0  0  0  0  0  0
   -5.0977   60.0718   31.3126 C   0  0  0  0  0  0  0  0  0  0  0  0
   -4.6731   60.6318   30.0386 C   0  0  0  0  0  0  0  0  0  0  0  0
   -3.3849   61.2968   30.0281 N   0  0  0  0  0  0  0  0  0  0  0  0
   -2.2739   60.6616   29.4074 C   0  0  0  0  0  0  0  0  0  0  0  0
   -1.4409   59.7259   30.1819 C   0  0  0  0  0  0  0  0  0  0  0  0
   -0.6968   60.5433   31.0721 F   0  0  0  0  0  0  0  0  0  0  0  0
   -0.4502   59.0708   29.4782 F   0  0  0  0  0  0  0  0  0  0  0  0
   -2.1753   58.9059   30.9691 F   0  0  0  0  0  0  0  0  0  0  0  0
   -3.3619   62.5866   30.6255 C   0  0  0  0  0  0  0  0  0  0  0  0
   -2.2607   63.1616   30.9414 O   0  0  0  0  0  0  0  0  0  0  0  0
   -4.5363   63.3897   30.9469 C   0  0  0  0  0  0  0  0  0  0  0  0
   -5.8063   63.0135   30.5627 C   0  0  0  0  0  0  0  0  0  0  0  0
   -6.8458   63.8509   30.8964 C   0  0  0  0  0  0  0  0  0  0  0  0
   -6.6234   65.0246   31.5904 C   0  0  0  0  0  0  0  0  0  0  0  0
   -5.3350   65.3853   31.9683 C   0  0  0  0  0  0  0  0  0  0  0  0
   -4.2799   64.5645   31.6462 C   0  0  0  0  0  0  0  0  0  0  0  0
   -2.9370   64.9144   32.0254 N   0  0  0  0  0  0  0  0  0  0  0  0
   -2.1619   64.3304   32.9551 C   0  0  0  0  0  0  0  0  0  0  0  0
   -0.9733   64.9813   32.9822 N   0  0  0  0  0  0  0  0  0  0  0  0
   -1.0243   65.9363   32.0921 N   0  0  0  0  0  0  0  0  0  0  0  0
   -2.2031   65.8917   31.5218 N   0  0  0  0  0  0  0  0  0  0  0  0
  1  2  2  0
  2  3  1  0
  3  4  1  0
  4  5  1  0
  5  6  1  0
  6  7  1  0
  6  8  1  0
  6  9  1  0
  4 10  1  0
 10 11  2  0
 10 12  1  0
 12 13  2  0
 13 14  1  0
 14 15  2  0
 15 16  1  0
 16 17  2  0
 17 18  1  0
 18 19  1  0
 19 20  2  0
 20 21  1  0
 21 22  2  0
 17 12  1  0
 22 18  1  0
M  END
$$$$
