
     RDKit          3D

 18 19  0  0  0  0  0  0  0  0999 V2000
   11.5933   93.9281   63.0659 C   0  0  0  0  0  0  0  0  0  0  0  0
   11.2373   95.2474   62.5928 N   0  0  0  0  0  0  0  0  0  0  0  0
   11.9942   95.9497   61.6128 C   0  0  0  0  0  0  0  0  0  0  0  0
   12.8820   95.2896   61.0123 O   0  0  0  0  0  0  0  0  0  0  0  0
   11.7132   97.3790   61.3519 C   0  0  0  0  0  0  0  0  0  0  0  0
   12.1487   97.8244   60.0693 N   0  0  0  0  0  0  0  0  0  0  0  0
   11.5309   97.1748   58.9763 C   0  0  0  0  0  0  0  0  0  0  0  0
   11.7432   97.7651   57.6326 C   0  0  0  0  0  0  0  0  0  0  0  0
   12.3201   99.1079   57.6846 N   0  0  0  0  0  0  0  0  0  0  0  0
   13.2772   99.5231   56.7430 C   0  0  0  0  0  0  0  0  0  0  0  0
   14.1227  100.5654   56.9566 C   0  0  0  0  0  0  0  0  0  0  0  0
   15.0744  100.9722   56.0114 C   0  0  0  0  0  0  0  0  0  0  0  0
   15.1732  100.3029   54.8121 C   0  0  0  0  0  0  0  0  0  0  0  0
   16.4523  100.8038   53.4713 Br  0  0  0  0  0  0  0  0  0  0  0  0
   14.3058   99.2513   54.6204 C   0  0  0  0  0  0  0  0  0  0  0  0
   13.4038   98.8813   55.5405 N   0  0  0  0  0  0  0  0  0  0  0  0
   11.7966   99.8918   58.7749 C   0  0  0  0  0  0  0  0  0  0  0  0
   12.2671   99.2251   60.0398 C   0  0  0  0  0  0  0  0  0  0  0  0
  1  2  1  0
  2  3  1  0
  3  4  2  0
  3  5  1  0
  5  6  1  0
  6  7  1  0
  7  8  1  0
  8  9  1  0
  9 10  1  0
 10 11  2  0
 11 12  1  0
 12 13  2  0
 13 14  1  0
 13 15  1  0
 15 16  2  0
  9 17  1  0
 17 18  1  0
 18  6  1  0
 16 10  1  0
M  END
$$$$
