
     RDKit          3D

 36 41  0  0  0  0  0  0  0  0999 V2000
   13.2931  100.1007   58.5272 C   0  0  0  0  0  0  0  0  0  0  0  0
   12.5314   99.2543   57.5604 C   0  0  0  0  0  0  0  0  0  0  0  0
   11.6124   98.3202   57.9702 C   0  0  0  0  0  0  0  0  0  0  0  0
   11.3326   98.1234   59.3955 C   0  0  0  0  0  0  0  0  0  0  0  0
   12.3963   97.3157   60.0877 C   0  0  0  0  0  0  0  0  0  0  0  0
   13.6027   97.4562   59.7750 O   0  0  0  0  0  0  0  0  0  0  0  0
   12.0525   96.3884   61.0932 N   0  0  0  0  0  0  0  0  0  0  0  0
   12.8994   96.1003   62.1867 C   0  0  0  0  0  0  0  0  0  0  0  0
   12.5552   94.8672   62.9596 C   0  0  0  0  0  0  0  0  0  0  0  0
   12.8621   93.6133   62.4319 C   0  0  0  0  0  0  0  0  0  0  0  0
   12.5853   92.4371   63.0989 C   0  0  0  0  0  0  0  0  0  0  0  0
   11.9856   92.4424   64.3349 C   0  0  0  0  0  0  0  0  0  0  0  0
   11.6644   91.2339   65.0813 C   0  0  0  0  0  0  0  0  0  0  0  0
   10.9985   91.1299   66.2413 N   0  0  0  0  0  0  0  0  0  0  0  0
   10.9242   89.8414   66.5941 N   0  0  0  0  0  0  0  0  0  0  0  0
   11.5295   89.1303   65.6806 N   0  0  0  0  0  0  0  0  0  0  0  0
   11.9889   89.9541   64.7478 N   0  0  0  0  0  0  0  0  0  0  0  0
   11.6791   93.6984   64.8634 C   0  0  0  0  0  0  0  0  0  0  0  0
   11.9553   94.8707   64.1959 C   0  0  0  0  0  0  0  0  0  0  0  0
   10.9650   97.6019   57.0095 C   0  0  0  0  0  0  0  0  0  0  0  0
   10.1044   96.7223   57.2607 O   0  0  0  0  0  0  0  0  0  0  0  0
   11.2245   97.8096   55.7182 O   0  0  0  0  0  0  0  0  0  0  0  0
   12.0945   98.6934   55.3017 C   0  0  0  0  0  0  0  0  0  0  0  0
   12.2973   98.8408   53.9293 C   0  0  0  0  0  0  0  0  0  0  0  0
   11.5666   98.0322   52.9215 C   0  0  0  0  0  0  0  0  0  0  0  0
   13.2091   99.7686   53.4731 C   0  0  0  0  0  0  0  0  0  0  0  0
   13.5943  100.1159   52.2456 O   0  0  0  0  0  0  0  0  0  0  0  0
   14.4878  101.0497   52.2881 C   0  0  0  0  0  0  0  0  0  0  0  0
   14.7264  101.3566   53.6063 C   0  0  0  0  0  0  0  0  0  0  0  0
   13.9143  100.5444   54.3890 C   0  0  0  0  0  0  0  0  0  0  0  0
   13.7052  100.3888   55.7449 C   0  0  0  0  0  0  0  0  0  0  0  0
   12.7960   99.4644   56.2091 C   0  0  0  0  0  0  0  0  0  0  0  0
   15.7089  102.4003   53.9235 C   0  0  0  0  0  0  0  0  0  0  0  0
   16.9597  102.1549   53.1120 C   0  0  0  0  0  0  0  0  0  0  0  0
   16.7102  101.7579   51.6933 C   0  0  0  0  0  0  0  0  0  0  0  0
   15.2744  101.8257   51.2661 C   0  0  0  0  0  0  0  0  0  0  0  0
  1  2  1  0
  2  3  2  0
  3  4  1  0
  4  5  1  0
  5  6  2  0
  5  7  1  0
  7  8  1  0
  8  9  1  0
  9 10  2  0
 10 11  1  0
 11 12  2  0
 12 13  1  0
 13 14  2  0
 14 15  1  0
 15 16  2  0
 16 17  1  0
 12 18  1  0
 18 19  2  0
  3 20  1  0
 20 21  2  0
 20 22  1  0
 22 23  1  0
 23 24  2  0
 24 25  1  0
 24 26  1  0
 26 27  1  0
 27 28  1  0
 28 29  2  0
 29 30  1  0
 30 31  1  0
 31 32  2  0
 29 33  1  0
 33 34  1  0
 34 35  1  0
 35 36  1  0
 32  2  1  0
 19  9  1  0
 32 23  1  0
 17 13  1  0
 30 26  2  0
 36 28  1  0
M  END
$$$$
