
     RDKit          3D

 24 25  0  0  0  0  0  0  0  0999 V2000
   17.8723   46.3099   19.0463 C   0  0  0  0  0  0  0  0  0  0  0  0
   18.1109   47.8163   19.0111 C   0  0  0  0  0  0  0  0  0  0  0  0
   19.2547   48.1015   19.9361 C   0  0  0  0  0  0  0  0  0  0  0  0
   16.8262   48.4735   19.3986 C   0  0  0  0  0  0  0  0  0  0  0  0
   16.1470   49.1568   18.2246 C   0  0  0  0  0  0  0  0  0  0  0  0
   15.2160   48.1695   17.5555 C   0  0  0  0  0  0  0  0  0  0  0  0
   13.9465   48.7964   17.3946 N   0  0  0  0  0  0  0  0  0  0  0  0
   13.0054   48.6035   18.4315 C   0  0  0  0  0  0  0  0  0  0  0  0
   13.7356   48.6838   19.7604 C   0  0  0  0  0  0  0  0  0  0  0  0
   12.2139   47.3471   18.3596 C   0  0  0  0  0  0  0  0  0  0  0  0
   17.0753   49.7692   17.3317 N   0  0  0  0  0  0  0  0  0  0  0  0
   16.7091   50.8517   16.4842 C   0  0  0  0  0  0  0  0  0  0  0  0
   15.6866   50.6688   15.7718 O   0  0  0  0  0  0  0  0  0  0  0  0
   17.4783   52.0364   16.4801 N   0  0  0  0  0  0  0  0  0  0  0  0
   17.3522   52.9293   15.3837 C   0  0  0  0  0  0  0  0  0  0  0  0
   17.6586   54.0359   15.0793 N   0  0  0  0  0  0  0  0  0  0  0  0
   17.4200   54.6691   13.9614 C   0  0  0  0  0  0  0  0  0  0  0  0
   17.7854   55.9757   13.6105 C   0  0  0  0  0  0  0  0  0  0  0  0
   17.4418   56.4669   12.3819 C   0  0  0  0  0  0  0  0  0  0  0  0
   16.7441   55.7634   11.4287 C   0  0  0  0  0  0  0  0  0  0  0  0
   16.3111   56.4021    9.8624 Cl  0  0  0  0  0  0  0  0  0  0  0  0
   16.3797   54.4708   11.7692 C   0  0  0  0  0  0  0  0  0  0  0  0
   16.7265   53.9702   13.0137 C   0  0  0  0  0  0  0  0  0  0  0  0
   16.4529   52.4058   13.8077 S   0  0  0  0  0  0  0  0  0  0  0  0
  1  2  1  0
  2  3  1  0
  2  4  1  0
  4  5  1  0
  5  6  1  0
  6  7  1  0
  7  8  1  0
  8  9  1  0
  8 10  1  0
  5 11  1  0
 11 12  1  0
 12 13  2  0
 12 14  1  0
 14 15  1  0
 15 16  2  0
 16 17  1  0
 17 18  2  0
 18 19  1  0
 19 20  2  0
 20 21  1  0
 20 22  1  0
 22 23  2  0
 23 24  1  0
 24 15  1  0
 23 17  1  0
M  END
$$$$
