
     RDKit          3D

 33 36  0  0  0  0  0  0  0  0999 V2000
   15.4146   97.0341   62.9190 C   0  0  0  0  0  0  0  0  0  0  0  0
   14.2946   96.2073   63.0471 O   0  0  0  0  0  0  0  0  0  0  0  0
   13.1788   96.1981   62.2272 C   0  0  0  0  0  0  0  0  0  0  0  0
   13.2340   96.6586   60.9297 C   0  0  0  0  0  0  0  0  0  0  0  0
   12.1576   96.6631   60.1016 C   0  0  0  0  0  0  0  0  0  0  0  0
   12.1732   97.1121   58.8109 O   0  0  0  0  0  0  0  0  0  0  0  0
   12.5566   98.3701   58.3955 C   0  0  1  0  0  0  0  0  0  0  0  0
   12.7885   98.3754   56.9097 C   0  0  0  0  0  0  0  0  0  0  0  0
   13.0233   97.3740   56.2080 O   0  0  0  0  0  0  0  0  0  0  0  0
   12.6760   99.7495   56.5409 N   0  0  0  0  0  0  0  0  0  0  0  0
   13.2682  100.3443   55.3945 C   0  0  0  0  0  0  0  0  0  0  0  0
   12.8369  101.5349   54.8584 C   0  0  0  0  0  0  0  0  0  0  0  0
   13.4382  102.0293   53.7702 N   0  0  0  0  0  0  0  0  0  0  0  0
   14.4547  101.4173   53.1642 C   0  0  0  0  0  0  0  0  0  0  0  0
   15.0652  101.9797   52.0127 C   0  0  0  0  0  0  0  0  0  0  0  0
   15.5890  102.4590   51.0629 N   0  0  0  0  0  0  0  0  0  0  0  0
   14.9247  100.2287   53.6557 N   0  0  0  0  0  0  0  0  0  0  0  0
   14.3337   99.7327   54.7333 C   0  0  0  0  0  0  0  0  0  0  0  0
   11.8721  100.4530   57.5040 C   0  0  0  0  0  0  0  0  0  0  0  0
   11.4366   99.4126   58.4794 C   0  0  1  0  0  0  0  0  0  0  0  0
   10.1313   98.8156   58.0095 C   0  0  0  0  0  0  0  0  0  0  0  0
   10.9489   96.1742   60.6056 C   0  0  0  0  0  0  0  0  0  0  0  0
    9.5437   96.1660   59.5607 Cl  0  0  0  0  0  0  0  0  0  0  0  0
   10.8594   95.7098   61.8879 C   0  0  0  0  0  0  0  0  0  0  0  0
   11.9619   95.7228   62.6870 C   0  0  0  0  0  0  0  0  0  0  0  0
   11.9102   95.2178   64.0622 C   0  0  0  0  0  0  0  0  0  0  0  0
   12.7462   94.0492   64.1911 N   0  0  0  0  0  0  0  0  0  0  0  0
   12.8210   93.2915   62.9481 C   0  0  0  0  0  0  0  0  0  0  0  0
   13.1332   91.8624   63.4221 C   0  0  0  0  0  0  0  0  0  0  0  0
   12.2171   91.7586   64.6193 C   0  0  1  0  0  0  0  0  0  0  0  0
   12.6752   90.8206   65.5416 O   0  0  0  0  0  0  0  0  0  0  0  0
   14.0627   90.8278   65.4921 C   0  0  0  0  0  0  0  0  0  0  0  0
   12.2041   93.1633   65.1691 C   0  0  0  0  0  0  0  0  0  0  0  0
  1  2  1  0
  2  3  1  0
  3  4  2  0
  4  5  1  0
  5  6  1  0
  7  6  1  6
  7  8  1  0
  8  9  2  0
  8 10  1  0
 10 11  1  0
 11 12  2  0
 12 13  1  0
 13 14  2  0
 14 15  1  0
 15 16  3  0
 14 17  1  0
 17 18  2  0
 10 19  1  0
 19 20  1  0
 20 21  1  6
  5 22  2  0
 22 23  1  0
 22 24  1  0
 24 25  2  0
 25 26  1  0
 26 27  1  0
 27 28  1  0
 28 29  1  0
 29 30  1  0
 30 31  1  1
 31 32  1  0
 30 33  1  0
 25  3  1  0
 33 27  1  0
 20  7  1  0
 18 11  1  0
M  END
$$$$
