
     RDKit          3D

 29 33  0  0  0  0  0  0  0  0999 V2000
   14.0543   97.0929   59.7324 C   0  0  0  0  0  0  0  0  0  0  0  0
   13.2590   97.6574   58.7158 O   0  0  0  0  0  0  0  0  0  0  0  0
   12.2584   98.3692   59.3344 C   0  0  2  0  0  0  0  0  0  0  0  0
   11.0418   98.5702   58.4220 C   0  0  1  0  0  0  0  0  0  0  0  0
    9.9627   99.0686   59.3756 C   0  0  0  0  0  0  0  0  0  0  0  0
   10.3152  100.3703   60.0093 C   0  0  0  0  0  0  0  0  0  0  0  0
   11.7348  100.6987   60.1603 C   0  0  0  0  0  0  0  0  0  0  0  0
   12.7453   99.7499   59.6773 C   0  0  2  0  0  0  0  0  0  0  0  0
   13.4605  100.2634   58.4148 C   0  0  0  0  0  3  0  0  0  0  0  0
   12.6761   99.9656   57.2363 N   0  0  0  0  0  0  0  0  0  0  0  0
   13.3161   99.9820   55.9763 C   0  0  0  0  0  0  0  0  0  0  0  0
   12.8780   99.2753   54.8744 C   0  0  0  0  0  0  0  0  0  0  0  0
   13.5669   99.3768   53.7241 N   0  0  0  0  0  0  0  0  0  0  0  0
   14.6568  100.1245   53.5806 C   0  0  0  0  0  0  0  0  0  0  0  0
   15.4823  100.3472   52.4913 C   0  0  0  0  0  0  0  0  0  0  0  0
   15.3588   99.7870   51.1507 C   0  0  0  0  0  0  0  0  0  0  0  0
   14.6325   98.6233   50.9809 C   0  0  0  0  0  0  0  0  0  0  0  0
   14.5172   98.0920   49.6990 C   0  0  0  0  0  0  0  0  0  0  0  0
   15.1039   98.6904   48.5998 C   0  0  0  0  0  0  0  0  0  0  0  0
   15.8267   99.8512   48.7784 C   0  0  0  0  0  0  0  0  0  0  0  0
   16.4973  100.5760   47.6692 C   0  0  0  0  0  0  0  0  0  0  0  0
   15.7053  101.6330   47.2013 O   0  0  0  0  0  0  0  0  0  0  0  0
   15.9398  100.3755   50.0469 C   0  0  0  0  0  0  0  0  0  0  0  0
   16.6480  101.5146   50.2285 F   0  0  0  0  0  0  0  0  0  0  0  0
   16.4504  101.2170   52.9516 C   0  0  0  0  0  0  0  0  0  0  0  0
   16.2200  101.5062   54.2592 N   0  0  0  0  0  0  0  0  0  0  0  0
   15.1302  100.8383   54.6296 N   0  0  0  0  0  0  0  0  0  0  0  0
   14.4604  100.7526   55.7850 C   0  0  0  0  0  0  0  0  0  0  0  0
   11.2785   99.6781   57.4123 C   0  0  0  0  0  0  0  0  0  0  0  0
  1  2  1  0
  3  2  1  6
  3  4  1  0
  4  5  1  1
  5  6  1  0
  6  7  1  0
  8  7  1  6
  8  9  1  0
  9 10  1  0
 10 11  1  0
 11 12  1  0
 12 13  2  0
 13 14  1  0
 14 15  2  0
 15 16  1  0
 16 17  2  0
 17 18  1  0
 18 19  2  0
 19 20  1  0
 20 21  1  0
 21 22  1  0
 20 23  2  0
 23 24  1  0
 15 25  1  0
 25 26  2  0
 26 27  1  0
 27 28  1  0
 10 29  1  0
  8  3  1  0
 28 11  2  0
 29  4  1  0
 27 14  1  0
 23 16  1  0
M  RAD  1   9   2
M  END
$$$$
