
     RDKit          3D

 25 27  0  0  0  0  0  0  0  0999 V2000
   -1.5110   58.2343   33.2004 C   0  0  0  0  0  0  0  0  0  0  0  0
   -2.3369   59.3130   32.8706 O   0  0  0  0  0  0  0  0  0  0  0  0
   -2.5596   59.7854   31.5822 C   0  0  0  0  0  0  0  0  0  0  0  0
   -1.7493   59.2994   30.5940 C   0  0  0  0  0  0  0  0  0  0  0  0
   -1.8948   59.7105   29.2935 C   0  0  0  0  0  0  0  0  0  0  0  0
   -2.8878   60.6279   29.0377 C   0  0  0  0  0  0  0  0  0  0  0  0
   -3.7200   61.1375   30.0060 C   0  0  0  0  0  0  0  0  0  0  0  0
   -3.5482   60.6985   31.3234 C   0  0  0  0  0  0  0  0  0  0  0  0
   -4.4128   61.2211   32.3886 C   0  0  0  0  0  0  0  0  0  0  0  0
   -5.1472   62.3596   31.9508 N   0  0  0  0  0  0  0  0  0  0  0  0
   -4.5638   63.6915   32.0846 C   0  0  0  0  0  0  0  0  0  0  0  0
   -6.4142   62.2625   31.3741 C   0  0  0  0  0  0  0  0  0  0  0  0
   -6.9196   63.3564   30.9129 O   0  0  0  0  0  0  0  0  0  0  0  0
   -7.2016   61.0274   31.2528 C   0  0  0  0  0  0  0  0  0  0  0  0
   -6.8992   59.7577   31.6910 C   0  0  0  0  0  0  0  0  0  0  0  0
   -7.8853   58.8854   31.4132 N   0  0  0  0  0  0  0  0  0  0  0  0
   -7.9143   57.4507   31.7274 C   0  0  0  0  0  0  0  0  0  0  0  0
   -6.7136   56.7574   31.1158 C   0  0  0  0  0  0  0  0  0  0  0  0
   -7.9132   57.2603   33.2199 C   0  0  0  0  0  0  0  0  0  0  0  0
   -8.8419   59.5895   30.7878 C   0  0  0  0  0  0  0  0  0  0  0  0
  -10.0474   59.1906   30.2955 N   0  0  0  0  0  0  0  0  0  0  0  0
  -10.8831   60.0538   29.6931 C   0  0  0  0  0  0  0  0  0  0  0  0
  -10.5056   61.3937   29.5686 C   0  0  0  0  0  0  0  0  0  0  0  0
   -9.2920   61.8218   30.0580 C   0  0  0  0  0  0  0  0  0  0  0  0
   -8.4642   60.9090   30.6679 C   0  0  0  0  0  0  0  0  0  0  0  0
  1  2  1  0
  2  3  1  0
  3  4  2  0
  4  5  1  0
  5  6  2  0
  6  7  1  0
  7  8  2  0
  8  9  1  0
  9 10  1  0
 10 11  1  0
 10 12  1  0
 12 13  2  0
 12 14  1  0
 14 15  2  0
 15 16  1  0
 16 17  1  0
 17 18  1  0
 17 19  1  0
 16 20  1  0
 20 21  2  0
 21 22  1  0
 22 23  2  0
 23 24  1  0
 24 25  2  0
  8  3  1  0
 25 14  1  0
 25 20  1  0
M  END
$$$$
