
     RDKit          3D

 32 35  0  0  0  0  0  0  0  0999 V2000
   16.8166   99.7352   50.2501 C   0  0  0  0  0  0  0  0  0  0  0  0
   15.6744  100.4780   50.8774 C   0  0  0  0  0  0  0  0  0  0  0  0
   15.4839  100.1516   52.3356 C   0  0  0  0  0  0  0  0  0  0  0  0
   14.3655  100.9519   52.9681 C   0  0  0  0  0  0  0  0  0  0  0  0
   14.2666  100.5351   54.3804 C   0  0  0  0  0  0  0  0  0  0  0  0
   15.3516  100.6142   55.1623 N   0  0  0  0  0  0  0  0  0  0  0  0
   15.2780  100.2334   56.4727 C   0  0  0  0  0  0  0  0  0  0  0  0
   16.4718  100.3102   57.3715 C   0  0  0  0  0  0  0  0  0  0  0  0
   14.0630   99.7725   56.9488 C   0  0  0  0  0  0  0  0  0  0  0  0
   12.9518   99.6828   56.1793 N   0  0  0  0  0  4  0  0  0  0  0  0
   11.6811   99.2005   56.6548 C   0  0  0  0  0  0  0  0  0  0  0  0
   11.7539   98.3744   57.8791 C   0  0  0  0  0  0  0  0  0  0  0  0
   12.4052   97.1658   57.9282 C   0  0  0  0  0  0  0  0  0  0  0  0
   12.4593   96.4044   59.1066 C   0  0  0  0  0  0  0  0  0  0  0  0
   11.8620   96.8336   60.2685 C   0  0  0  0  0  0  0  0  0  0  0  0
   11.9239   96.0379   61.5373 C   0  0  0  0  0  0  0  0  0  0  0  0
   13.2545   96.1516   62.1316 C   0  0  0  0  0  0  0  0  0  0  0  0
   13.9941   94.9951   62.3481 C   0  0  0  0  0  0  0  0  0  0  0  0
   15.2464   95.0287   62.9086 C   0  0  0  0  0  0  0  0  0  0  0  0
   15.7998   96.2255   63.2714 C   0  0  0  0  0  0  0  0  0  0  0  0
   15.1055   97.3991   63.0768 C   0  0  0  0  0  0  0  0  0  0  0  0
   13.8394   97.3399   62.5078 C   0  0  0  0  0  0  0  0  0  0  0  0
   10.7753   96.2079   62.4162 C   0  0  0  0  0  0  0  0  0  0  0  0
    9.4736   96.3953   61.9903 C   0  0  0  0  0  0  0  0  0  0  0  0
    8.4269   96.5656   62.8722 C   0  0  0  0  0  0  0  0  0  0  0  0
    8.6543   96.5529   64.2314 C   0  0  0  0  0  0  0  0  0  0  0  0
    9.9330   96.3693   64.7095 C   0  0  0  0  0  0  0  0  0  0  0  0
   10.9441   96.2043   63.8069 C   0  0  0  0  0  0  0  0  0  0  0  0
   11.2072   98.0497   60.2161 C   0  0  0  0  0  0  0  0  0  0  0  0
   11.1511   98.8005   59.0629 C   0  0  0  0  0  0  0  0  0  0  0  0
   13.0907  100.0714   54.9054 C   0  0  0  0  0  0  0  0  0  0  0  0
   11.9638  100.0099   54.0480 N   0  0  0  0  0  0  0  0  0  0  0  0
  1  2  1  0
  2  3  1  0
  3  4  1  0
  4  5  1  0
  5  6  2  0
  6  7  1  0
  7  8  1  0
  7  9  2  0
  9 10  1  0
 10 11  1  0
 11 12  1  0
 12 13  2  0
 13 14  1  0
 14 15  2  0
 15 16  1  0
 16 17  1  0
 17 18  2  0
 18 19  1  0
 19 20  2  0
 20 21  1  0
 21 22  2  0
 16 23  1  0
 23 24  2  0
 24 25  1  0
 25 26  2  0
 26 27  1  0
 27 28  2  0
 15 29  1  0
 29 30  2  0
 10 31  2  0
 31 32  1  0
 31  5  1  0
 30 12  1  0
 22 17  1  0
 28 23  1  0
M  CHG  1  10   1
M  END
$$$$
