
     RDKit          3D

 32 36  0  0  0  0  0  0  0  0999 V2000
   28.3186   81.5665   52.2761 C   0  0  0  0  0  0  0  0  0  0  0  0
   29.2520   82.4810   51.4906 C   0  0  0  0  0  0  0  0  0  0  0  0
   30.5574   82.6436   52.2219 C   0  0  0  0  0  0  0  0  0  0  0  0
   31.4822   83.4908   51.4035 C   0  0  0  0  0  0  0  0  0  0  0  0
   31.6303   82.8258   50.1019 N   0  0  0  0  0  0  0  0  0  0  0  0
   32.8600   82.2602   49.6862 C   0  0  0  0  0  0  0  0  0  0  0  0
   32.9561   81.6988   48.4344 C   0  0  0  0  0  0  0  0  0  0  0  0
   34.1852   81.1462   48.0625 C   0  0  0  0  0  0  0  0  0  0  0  0
   35.2627   81.1374   48.8582 N   0  0  0  0  0  0  0  0  0  0  0  0
   35.1956   81.6776   50.0826 C   0  0  0  0  0  0  0  0  0  0  0  0
   36.3328   81.7334   51.0155 C   0  0  0  0  0  0  0  0  0  0  0  0
   36.6833   80.6351   51.6827 O   0  0  0  0  0  0  0  0  0  0  0  0
   37.7559   80.5022   52.4514 C   0  0  0  0  0  0  0  0  0  0  0  0
   37.7131   81.1700   53.8124 C   0  0  0  0  0  0  0  0  0  0  0  0
   38.9799   80.7221   54.5362 C   0  0  0  0  0  0  0  0  0  0  0  0
   40.2318   81.1126   53.7617 C   0  0  0  0  0  0  0  0  0  0  0  0
   39.7814   81.8966   52.6077 N   0  0  0  0  0  0  0  0  0  0  0  0
   39.1124   83.0347   53.1483 C   0  0  0  0  0  0  0  0  0  0  0  0
   37.7639   82.6589   53.7256 C   0  0  0  0  0  0  0  0  0  0  0  0
   39.0136   81.0477   51.7519 C   0  0  0  0  0  0  0  0  0  0  0  0
   38.6240   81.6382   50.4532 C   0  0  0  0  0  0  0  0  0  0  0  0
   39.6613   82.2076   49.6151 C   0  0  0  0  0  0  0  0  0  0  0  0
   40.5695   81.4601   48.9178 C   0  0  0  0  0  0  0  0  0  0  0  0
   41.5540   82.0565   48.1169 C   0  0  0  0  0  0  0  0  0  0  0  0
   41.5795   83.4395   48.0527 C   0  0  0  0  0  0  0  0  0  0  0  0
   42.7907   84.1894   47.0661 Cl  0  0  0  0  0  0  0  0  0  0  0  0
   40.6699   84.2134   48.7504 C   0  0  0  0  0  0  0  0  0  0  0  0
   40.7961   85.9495   48.5974 Cl  0  0  0  0  0  0  0  0  0  0  0  0
   39.6998   83.6088   49.5403 C   0  0  0  0  0  0  0  0  0  0  0  0
   33.9894   82.2352   50.4832 C   0  0  0  0  0  0  0  0  0  0  0  0
   30.3996   82.7933   49.3220 C   0  0  0  0  0  0  0  0  0  0  0  0
   29.4567   81.8904   50.1319 C   0  0  0  0  0  0  0  0  0  0  0  0
  1  2  1  0
  2  3  1  0
  3  4  1  0
  4  5  1  0
  5  6  1  0
  6  7  2  0
  7  8  1  0
  8  9  2  0
  9 10  1  0
 10 11  1  0
 11 12  1  0
 12 13  1  0
 13 14  1  0
 14 15  1  0
 15 16  1  0
 16 17  1  0
 17 18  1  0
 18 19  1  0
 17 20  1  0
 20 21  1  0
 21 22  1  0
 22 23  2  0
 23 24  1  0
 24 25  2  0
 25 26  1  0
 25 27  1  0
 27 28  1  0
 27 29  2  0
 10 30  2  0
  5 31  1  0
 31 32  1  0
 32  2  1  0
 30  6  1  0
 20 13  1  0
 29 22  1  0
 19 14  1  0
M  END
$$$$
