
     RDKit          3D

 24 25  0  0  0  0  0  0  0  0999 V2000
   11.9348   99.6198   53.1731 C   0  0  0  0  0  0  0  0  0  0  0  0
   13.3055   99.1073   53.5065 C   0  0  0  0  0  0  0  0  0  0  0  0
   14.0336   99.9313   54.4269 N   0  0  0  0  0  0  0  0  0  0  0  0
   14.9761  100.9566   53.9903 C   0  0  0  0  0  0  0  0  0  0  0  0
   15.6360  100.5284   52.6754 C   0  0  0  0  0  0  0  0  0  0  0  0
   16.6566  101.4885   52.2717 C   0  0  0  0  0  0  0  0  0  0  0  0
   17.4618  102.2677   51.9622 N   0  0  0  0  0  0  0  0  0  0  0  0
   13.8299   99.7372   55.8149 C   0  0  0  0  0  0  0  0  0  0  0  0
   14.5481  100.3642   56.6643 O   0  0  0  0  0  0  0  0  0  0  0  0
   12.7978   98.8174   56.3584 C   0  0  0  0  0  0  0  0  0  0  0  0
   13.0842   98.4606   58.1123 S   0  0  0  0  0  0  0  0  0  0  0  0
   11.7267   99.0454   59.0619 C   0  0  0  0  0  0  0  0  0  0  0  0
   10.8143   99.9464   58.6623 N   0  0  0  0  0  0  0  0  0  0  0  0
    9.9811  100.0966   59.6714 N   0  0  0  0  0  0  0  0  0  0  0  0
   10.3712   99.3045   60.6738 N   0  0  0  0  0  0  0  0  0  0  0  0
   11.4562   98.6393   60.3192 N   0  0  0  0  0  0  0  0  0  0  0  0
   12.1524   97.7155   61.1110 C   0  0  0  0  0  0  0  0  0  0  0  0
   13.0440   96.8064   60.5225 C   0  0  0  0  0  0  0  0  0  0  0  0
   13.7248   95.9008   61.2983 C   0  0  0  0  0  0  0  0  0  0  0  0
   13.5616   95.8499   62.6651 C   0  0  0  0  0  0  0  0  0  0  0  0
   14.2794   94.9109   63.3908 O   0  0  0  0  0  0  0  0  0  0  0  0
   14.6200   93.6420   62.8938 C   0  0  0  0  0  0  0  0  0  0  0  0
   12.6841   96.7458   63.2379 C   0  0  0  0  0  0  0  0  0  0  0  0
   11.9881   97.6652   62.4816 C   0  0  0  0  0  0  0  0  0  0  0  0
  1  2  1  0
  2  3  1  0
  3  4  1  0
  4  5  1  0
  5  6  1  0
  6  7  3  0
  3  8  1  0
  8  9  2  0
  8 10  1  0
 10 11  1  0
 11 12  1  0
 12 13  2  0
 13 14  1  0
 14 15  2  0
 15 16  1  0
 16 17  1  0
 17 18  2  0
 18 19  1  0
 19 20  2  0
 20 21  1  0
 21 22  1  0
 20 23  1  0
 23 24  2  0
 16 12  1  0
 24 17  1  0
M  END
$$$$
