
     RDKit          3D

 19 20  0  0  0  0  0  0  0  0999 V2000
   15.0810   52.5324   15.7898 C   0  0  0  0  0  0  0  0  0  0  0  0
   15.7714   52.2542   14.6141 O   0  0  0  0  0  0  0  0  0  0  0  0
   16.0555   53.1416   13.6011 C   0  0  0  0  0  0  0  0  0  0  0  0
   15.5689   54.4492   13.5674 C   0  0  0  0  0  0  0  0  0  0  0  0
   15.8638   55.3233   12.5455 C   0  0  0  0  0  0  0  0  0  0  0  0
   15.3718   56.6566   12.4997 N   0  0  0  0  0  0  0  0  0  0  0  0
   14.0239   57.0525   12.7057 C   0  0  0  0  0  0  0  0  0  0  0  0
   13.2458   56.8444   11.4839 N   0  0  0  0  0  0  0  0  0  0  0  0
   12.2528   57.8645   11.5001 C   0  0  0  0  0  0  0  0  0  0  0  0
   11.2303   57.8522   10.7666 O   0  0  0  0  0  0  0  0  0  0  0  0
   12.5955   58.8822   12.4614 N   0  0  0  0  0  0  0  0  0  0  0  0
   13.8218   58.4758   13.0445 C   0  0  0  0  0  0  0  0  0  0  0  0
   14.6024   59.1717   13.7218 O   0  0  0  0  0  0  0  0  0  0  0  0
   16.6766   54.8440   11.5352 C   0  0  0  0  0  0  0  0  0  0  0  0
   17.1329   55.8489   10.1713 Cl  0  0  0  0  0  0  0  0  0  0  0  0
   17.1604   53.5527   11.5633 C   0  0  0  0  0  0  0  0  0  0  0  0
   16.8680   52.6804   12.5801 C   0  0  0  0  0  0  0  0  0  0  0  0
   17.3809   51.3232   12.6024 C   0  0  0  0  0  0  0  0  0  0  0  0
   17.7677   50.2464   12.6254 N   0  0  0  0  0  0  0  0  0  0  0  0
  1  2  1  0
  2  3  1  0
  3  4  2  0
  4  5  1  0
  5  6  1  0
  6  7  1  0
  7  8  1  0
  8  9  1  0
  9 10  2  0
  9 11  1  0
 11 12  1  0
 12 13  2  0
  5 14  2  0
 14 15  1  0
 14 16  1  0
 16 17  2  0
 17 18  1  0
 18 19  3  0
 17  3  1  0
 12  7  1  0
M  END
$$$$
