
     RDKit          3D

 36 39  0  0  0  0  0  0  0  0999 V2000
   11.9928   98.1952   61.2927 C   0  0  0  0  0  0  0  0  0  0  0  0
   11.9038   99.1243   60.2234 O   0  0  0  0  0  0  0  0  0  0  0  0
   12.9818   99.3859   59.3824 C   0  0  0  0  0  0  0  0  0  0  0  0
   12.8225   99.7461   58.0657 C   0  0  0  0  0  0  0  0  0  0  0  0
   11.5362   99.8378   57.6011 F   0  0  0  0  0  0  0  0  0  0  0  0
   13.8950  100.0032   57.2432 C   0  0  0  0  0  0  0  0  0  0  0  0
   15.2160   99.9076   57.7177 C   0  0  0  0  0  0  0  0  0  0  0  0
   16.2583  100.2040   56.8240 N   0  0  0  0  0  0  0  0  0  0  0  0
   16.1654  100.2774   55.4070 C   0  0  0  0  0  0  0  0  0  0  0  0
   17.2120  100.4962   54.6015 N   0  0  0  0  0  0  0  0  0  0  0  0
   17.1380  100.5700   53.2641 C   0  0  0  0  0  0  0  0  0  0  0  0
   15.9108  100.4148   52.6277 C   0  0  0  0  0  0  0  0  0  0  0  0
   15.8109  100.4821   51.1488 C   0  0  0  0  0  0  0  0  0  0  0  0
   15.5062   99.2685   50.5803 F   0  0  0  0  0  0  0  0  0  0  0  0
   14.9633  101.4993   50.8161 F   0  0  0  0  0  0  0  0  0  0  0  0
   17.0524  100.8401   50.5970 F   0  0  0  0  0  0  0  0  0  0  0  0
   14.8207  100.1895   53.4368 C   0  0  0  0  0  0  0  0  0  0  0  0
   13.5535  100.0374   52.8328 N   0  0  0  0  0  0  0  0  0  0  0  0
   12.4890   99.4265   53.5836 C   0  0  0  0  0  0  0  0  0  0  0  0
   11.2179   99.3389   53.0326 C   0  0  0  0  0  0  0  0  0  0  0  0
   10.2439   98.7669   53.7477 N   0  0  0  0  0  0  0  0  0  0  0  0
   10.4576   98.2663   55.0020 C   0  0  0  0  0  0  0  0  0  0  0  0
    9.3231   97.6821   55.6544 C   0  0  0  0  0  0  0  0  0  0  0  0
    8.4235   97.2027   56.1843 N   0  0  0  0  0  0  0  0  0  0  0  0
   11.7079   98.3420   55.5686 C   0  0  0  0  0  0  0  0  0  0  0  0
   12.0163   97.8848   56.7847 O   0  0  0  0  0  0  0  0  0  0  0  0
   12.6513   98.2152   57.9126 C   0  0  2  0  0  0  0  0  0  0  0  0
   12.3337   97.3320   59.1185 C   0  0  0  0  0  0  0  0  0  0  0  0
   12.7654   98.2384   60.2445 C   0  0  0  0  0  0  0  0  0  0  0  0
   12.6113   99.5980   59.7718 N   0  0  0  0  0  0  0  0  0  0  0  0
   12.0335   99.5363   58.4462 C   0  0  0  0  0  0  0  0  0  0  0  0
   12.6760   98.9344   54.8035 N   0  0  0  0  0  0  0  0  0  0  0  0
   14.9778  100.1283   54.7812 N   0  0  0  0  0  0  0  0  0  0  0  0
   15.3680   99.5505   59.0230 C   0  0  0  0  0  0  0  0  0  0  0  0
   14.2669   99.2895   59.8571 C   0  0  0  0  0  0  0  0  0  0  0  0
   14.4744   98.9405   61.1438 F   0  0  0  0  0  0  0  0  0  0  0  0
  1  2  1  0
  2  3  1  0
  3  4  2  0
  4  5  1  0
  4  6  1  0
  6  7  2  0
  7  8  1  0
  8  9  1  0
  9 10  2  0
 10 11  1  0
 11 12  2  0
 12 13  1  0
 13 14  1  0
 13 15  1  0
 13 16  1  0
 12 17  1  0
 17 18  1  0
 18 19  1  0
 19 20  2  0
 20 21  1  0
 21 22  2  0
 22 23  1  0
 23 24  3  0
 22 25  1  0
 25 26  1  0
 27 26  1  6
 27 28  1  0
 28 29  1  0
 29 30  1  0
 30 31  1  0
 25 32  2  0
 17 33  2  0
  7 34  1  0
 34 35  2  0
 35 36  1  0
 35  3  1  0
 33  9  1  0
 32 19  1  0
 31 27  1  0
M  END
$$$$
