
     RDKit          3D

 18 20  0  0  0  0  0  0  0  0999 V2000
   40.1385   85.3764   53.6077 C   0  0  0  0  0  0  0  0  0  0  0  0
   38.8569   85.1272   53.8335 C   0  0  0  0  0  0  0  0  0  0  0  0
   38.3621   83.7677   54.1233 C   0  0  0  0  0  0  0  0  0  0  0  0
   38.1956   82.9442   52.9444 N   0  0  0  0  0  0  0  0  0  0  0  0
   38.9922   83.3513   51.7650 C   0  0  0  0  0  0  0  0  0  0  0  0
   38.0975   83.3091   50.5414 C   0  0  0  0  0  0  0  0  0  0  0  0
   37.8806   82.0449   50.0197 N   0  0  0  0  0  0  0  0  0  0  0  0
   38.0070   81.8867   48.6373 C   0  0  0  0  0  0  0  0  0  0  0  0
   36.8431   81.9069   47.7406 C   0  0  0  0  0  0  0  0  0  0  0  0
   35.9862   80.7463   47.4243 C   0  0  0  0  0  0  0  0  0  0  0  0
   37.0042   81.1714   46.4271 C   0  0  0  0  0  0  0  0  0  0  0  0
   36.6832   81.4002   50.4818 C   0  0  0  0  0  0  0  0  0  0  0  0
   36.6589   81.1578   51.9198 C   0  0  0  0  0  0  0  0  0  0  0  0
   35.8464   80.0848   52.2559 C   0  0  0  0  0  0  0  0  0  0  0  0
   35.6653   79.6637   53.5480 C   0  0  0  0  0  0  0  0  0  0  0  0
   36.3271   80.3479   54.5436 C   0  0  0  0  0  0  0  0  0  0  0  0
   37.1379   81.4114   54.2552 C   0  0  0  0  0  0  0  0  0  0  0  0
   37.3179   81.8345   52.9396 C   0  0  0  0  0  0  0  0  0  0  0  0
  1  2  2  0
  2  3  1  0
  3  4  1  0
  4  5  1  0
  5  6  1  0
  6  7  1  0
  7  8  1  0
  8  9  1  0
  9 10  1  0
 10 11  1  0
  7 12  1  0
 12 13  1  0
 13 14  2  0
 14 15  1  0
 15 16  2  0
 16 17  1  0
 17 18  2  0
 18  4  1  0
 11  9  1  0
 18 13  1  0
M  END
$$$$
