
     RDKit          3D

 28 31  0  0  0  0  0  0  0  0999 V2000
   16.2291   60.7268   14.0876 O   0  0  0  0  0  0  0  0  0  0  0  0
   15.2226   60.6936   13.3320 C   0  0  0  0  0  0  0  0  0  0  0  0
   14.4695   61.9431   13.1273 C   0  0  0  0  0  0  0  0  0  0  0  0
   14.2069   62.5184   11.9183 C   0  0  0  0  0  0  0  0  0  0  0  0
   13.4842   63.6555   12.1871 C   0  0  0  0  0  0  0  0  0  0  0  0
   13.3560   63.6923   13.5672 C   0  0  0  0  0  0  0  0  0  0  0  0
   13.9528   62.6609   14.0945 O   0  0  0  0  0  0  0  0  0  0  0  0
   14.8660   59.4775   12.7227 N   0  0  0  0  0  0  0  0  0  0  0  0
   13.5072   59.3149   12.3009 C   0  0  0  0  0  0  0  0  0  0  0  0
   13.1008   59.9112   11.1193 C   0  0  0  0  0  0  0  0  0  0  0  0
   11.8242   59.7594   10.7307 N   0  0  0  0  0  0  0  0  0  0  0  0
   10.9170   59.0664   11.4145 C   0  0  0  0  0  0  0  0  0  0  0  0
   11.3366   58.4676   12.6065 C   0  0  0  0  0  0  0  0  0  0  0  0
   12.6192   58.6094   13.0147 N   0  0  0  0  0  0  0  0  0  0  0  0
   15.7905   58.4093   12.4896 C   0  0  0  0  0  0  0  0  0  0  0  0
   16.7396   58.1487   13.6081 C   0  0  0  0  0  0  0  0  0  0  0  0
   16.3867   56.8919   14.3799 C   0  0  0  0  0  0  0  0  0  0  0  0
   16.5422   55.7121   13.5374 N   0  0  0  0  0  0  0  0  0  0  0  0
   15.7861   54.6483   14.1570 C   0  0  0  0  0  0  0  0  0  0  0  0
   16.6700   53.5049   14.6173 C   0  0  0  0  0  0  0  0  0  0  0  0
   16.2144   52.2169   14.0449 C   0  0  0  0  0  0  0  0  0  0  0  0
   15.0255   51.6605   14.4672 C   0  0  0  0  0  0  0  0  0  0  0  0
   14.5651   50.4623   13.9716 C   0  0  0  0  0  0  0  0  0  0  0  0
   15.3074   49.7798   13.0168 C   0  0  0  0  0  0  0  0  0  0  0  0
   16.4811   50.3093   12.5877 C   0  0  0  0  0  0  0  0  0  0  0  0
   16.9314   51.5280   13.1039 C   0  0  0  0  0  0  0  0  0  0  0  0
   16.1074   56.0059   12.1791 C   0  0  0  0  0  0  0  0  0  0  0  0
   15.0710   57.0908   12.2067 C   0  0  0  0  0  0  0  0  0  0  0  0
  1  2  2  0
  2  3  1  0
  3  4  2  0
  4  5  1  0
  5  6  2  0
  6  7  1  0
  2  8  1  0
  8  9  1  0
  9 10  2  0
 10 11  1  0
 11 12  2  0
 12 13  1  0
 13 14  2  0
  8 15  1  0
 15 16  1  0
 16 17  1  0
 17 18  1  0
 18 19  1  0
 19 20  1  0
 20 21  1  0
 21 22  2  0
 22 23  1  0
 23 24  2  0
 24 25  1  0
 25 26  2  0
 18 27  1  0
 27 28  1  0
  7  3  1  0
 14  9  1  0
 28 15  1  0
 26 21  1  0
M  END
$$$$
