
     RDKit          3D

 22 24  0  0  0  0  0  0  0  0999 V2000
   31.1528   82.7089   50.9934 Br  0  0  0  0  0  0  0  0  0  0  0  0
   31.9636   82.4071   49.2896 C   0  0  0  0  0  0  0  0  0  0  0  0
   31.1754   82.2756   48.1753 C   0  0  0  0  0  0  0  0  0  0  0  0
   31.7137   82.0569   46.9246 C   0  0  0  0  0  0  0  0  0  0  0  0
   30.9052   81.9218   45.7842 N   0  0  0  0  0  0  0  0  0  0  0  0
   29.4522   82.1457   45.7675 C   0  0  0  0  0  0  0  0  0  0  0  0
   29.0233   81.8492   44.3477 C   0  0  0  0  0  0  0  0  0  0  0  0
   30.3024   82.2115   43.5823 C   0  0  0  0  0  0  0  0  0  0  0  0
   31.3456   81.5475   44.4552 C   0  0  0  0  0  0  0  0  0  0  0  0
   33.0916   81.9716   46.8138 C   0  0  0  0  0  0  0  0  0  0  0  0
   33.8947   82.1052   47.9433 C   0  0  0  0  0  0  0  0  0  0  0  0
   33.3635   82.3208   49.1838 C   0  0  0  0  0  0  0  0  0  0  0  0
   34.0558   82.4674   50.3436 O   0  0  0  0  0  0  0  0  0  0  0  0
   35.4099   82.6741   50.4991 C   0  0  0  0  0  0  0  0  0  0  0  0
   35.8007   82.7934   51.9300 C   0  0  0  0  0  0  0  0  0  0  0  0
   35.5525   81.5540   52.7627 C   0  0  0  0  0  0  0  0  0  0  0  0
   36.7705   81.2183   53.5405 C   0  0  0  0  0  0  0  0  0  0  0  0
   36.7158   79.9030   54.1535 N   0  0  0  0  0  0  0  0  0  0  0  0
   37.5116   79.8659   55.3617 C   0  0  0  0  0  0  0  0  0  0  0  0
   38.8378   79.2736   55.0213 C   0  0  0  0  0  0  0  0  0  0  0  0
   38.7672   79.1034   53.5023 C   0  0  0  0  0  0  0  0  0  0  0  0
   37.2763   78.8713   53.3317 C   0  0  0  0  0  0  0  0  0  0  0  0
  1  2  1  0
  2  3  2  0
  3  4  1  0
  4  5  1  0
  5  6  1  0
  6  7  1  0
  7  8  1  0
  8  9  1  0
  4 10  2  0
 10 11  1  0
 11 12  2  0
 12 13  1  0
 13 14  1  0
 14 15  1  0
 15 16  1  0
 16 17  1  0
 17 18  1  0
 18 19  1  0
 19 20  1  0
 20 21  1  0
 21 22  1  0
 12  2  1  0
 22 18  1  0
  9  5  1  0
M  END
$$$$
