
     RDKit          3D

 19 21  0  0  0  0  0  0  0  0999 V2000
   35.9870   80.3410   49.8340 C   0  0  0  0  0  0  0  0  0  0  0  0
   35.8479   81.3768   50.8646 C   0  0  0  0  0  0  0  0  0  0  0  0
   36.9154   81.7337   51.6961 C   0  0  0  0  0  0  0  0  0  0  0  0
   36.7811   82.7036   52.6710 C   0  0  0  0  0  0  0  0  0  0  0  0
   35.5848   83.3294   52.8305 C   0  0  0  0  0  0  0  0  0  0  0  0
   34.5334   82.9743   52.0077 C   0  0  0  0  0  0  0  0  0  0  0  0
   34.6397   82.0080   51.0245 C   0  0  0  0  0  0  0  0  0  0  0  0
   33.4926   81.6903   50.1889 C   0  0  0  0  0  0  0  0  0  0  0  0
   33.4692   82.4393   48.9392 N   0  0  0  0  0  0  0  0  0  0  0  0
   32.5368   81.7805   48.0519 C   0  0  0  0  0  0  0  0  0  0  0  0
   31.1902   81.5117   48.5982 C   0  0  0  0  0  0  0  0  0  0  0  0
   31.0625   81.8406   50.0340 C   0  0  0  0  0  0  0  0  0  0  0  0
   29.7810   82.0540   50.5637 C   0  0  0  0  0  0  0  0  0  0  0  0
   28.7183   81.9645   49.7384 F   0  0  0  0  0  0  0  0  0  0  0  0
   29.6958   82.3446   51.9089 C   0  0  0  0  0  0  0  0  0  0  0  0
   30.8206   82.4242   52.7089 C   0  0  0  0  0  0  0  0  0  0  0  0
   32.0713   82.2150   52.1871 C   0  0  0  0  0  0  0  0  0  0  0  0
   33.2030   82.2740   52.9136 F   0  0  0  0  0  0  0  0  0  0  0  0
   32.1669   81.9240   50.8418 C   0  0  0  0  0  0  0  0  0  0  0  0
  1  2  1  0
  2  3  2  0
  3  4  1  0
  4  5  2  0
  5  6  1  0
  6  7  2  0
  7  8  1  0
  8  9  1  0
  9 10  1  0
 10 11  1  0
 11 12  1  0
 12 13  2  0
 13 14  1  0
 13 15  1  0
 15 16  2  0
 16 17  1  0
 17 18  1  0
 17 19  2  0
  7  2  1  0
 19  8  1  0
 19 12  1  0
M  END
$$$$
