
     RDKit          3D

 30 34  0  0  0  0  0  0  0  0999 V2000
   17.1777   52.9687    9.8198 C   0  0  0  0  0  0  0  0  0  0  0  0
   17.8324   52.5701   11.1338 C   0  0  0  0  0  0  0  0  0  0  0  0
   16.8930   52.5964   12.2831 C   0  0  0  0  0  0  0  0  0  0  0  0
   17.1101   53.4472   13.3476 N   0  0  0  0  0  0  0  0  0  0  0  0
   17.4735   53.0214   14.6221 C   0  0  0  0  0  0  0  0  0  0  0  0
   16.3496   52.3113   15.3377 C   0  0  0  0  0  0  0  0  0  0  0  0
   15.1636   52.6893   15.2050 O   0  0  0  0  0  0  0  0  0  0  0  0
   16.5974   51.2011   16.1778 N   0  0  0  0  0  0  0  0  0  0  0  0
   16.2087   51.0677   17.5542 C   0  0  0  0  0  0  0  0  0  0  0  0
   15.1214   50.0280   17.6275 C   0  0  0  0  0  0  0  0  0  0  0  0
   15.3305   48.8861   18.3944 C   0  0  0  0  0  0  0  0  0  0  0  0
   14.3433   47.9346   18.4787 C   0  0  0  0  0  0  0  0  0  0  0  0
   13.1835   48.1164   17.8180 N   0  0  0  0  0  0  0  0  0  0  0  0
   12.9320   49.1916   17.0699 C   0  0  0  0  0  0  0  0  0  0  0  0
   13.9328   50.1585   16.9834 C   0  0  0  0  0  0  0  0  0  0  0  0
   17.6662   54.3390   15.3955 C   0  0  0  0  0  0  0  0  0  0  0  0
   18.0398   55.3693   14.3617 C   0  0  0  0  0  0  0  0  0  0  0  0
   17.3787   56.6974   14.5264 C   0  0  0  0  0  0  0  0  0  0  0  0
   16.1675   56.6285   13.7310 N   0  0  0  0  0  0  0  0  0  0  0  0
   16.2035   55.5676   12.9275 C   0  0  0  0  0  0  0  0  0  0  0  0
   15.0353   55.5811   12.2227 N   0  0  0  0  0  0  0  0  0  0  0  0
   14.2879   56.6309   12.5818 C   0  0  0  0  0  0  0  0  0  0  0  0
   13.0512   57.0540   12.1537 C   0  0  0  0  0  0  0  0  0  0  0  0
   12.5447   58.2018   12.7369 C   0  0  0  0  0  0  0  0  0  0  0  0
   11.2981   58.6146   12.2944 O   0  0  0  0  0  0  0  0  0  0  0  0
   10.6877   57.9691   11.1716 C   0  0  0  0  0  0  0  0  0  0  0  0
   13.2401   58.9036   13.7089 C   0  0  0  0  0  0  0  0  0  0  0  0
   14.4792   58.4582   14.1211 C   0  0  0  0  0  0  0  0  0  0  0  0
   15.0043   57.3030   13.5435 C   0  0  0  0  0  0  0  0  0  0  0  0
   17.4696   54.7864   13.0956 C   0  0  0  0  0  0  0  0  0  0  0  0
  1  2  1  0
  2  3  1  0
  3  4  1  0
  4  5  1  0
  5  6  1  0
  6  7  2  0
  6  8  1  0
  8  9  1  0
  9 10  1  0
 10 11  2  0
 11 12  1  0
 12 13  2  0
 13 14  1  0
 14 15  2  0
  5 16  1  0
 16 17  1  0
 17 18  1  0
 18 19  1  0
 19 20  1  0
 20 21  2  0
 21 22  1  0
 22 23  2  0
 23 24  1  0
 24 25  1  0
 25 26  1  0
 24 27  2  0
 27 28  1  0
 28 29  2  0
 20 30  1  0
 30  4  1  0
 15 10  1  0
 30 17  1  0
 29 19  1  0
 29 22  1  0
M  END
$$$$
