
     RDKit          3D

 30 34  0  0  0  0  0  0  0  0999 V2000
   13.3507   49.6064   19.2870 C   0  0  0  0  0  0  0  0  0  0  0  0
   12.9781   49.2447   17.8545 C   0  0  0  0  0  0  0  0  0  0  0  0
   14.1006   48.5769   17.1361 C   0  0  1  0  0  0  0  0  0  0  0  0
   13.6595   47.4231   16.2832 C   0  0  0  0  0  0  0  0  0  0  0  0
   14.9585   49.5604   16.4532 C   0  0  1  0  0  0  0  0  0  0  0  0
   14.6054   50.9503   16.8178 N   0  0  0  0  0  0  0  0  0  0  0  0
   15.4872   51.9873   16.3518 C   0  0  0  0  0  0  0  0  0  0  0  0
   15.2755   53.1889   16.5550 O   0  0  0  0  0  0  0  0  0  0  0  0
   16.6800   51.4615   15.6001 C   0  0  1  0  0  0  0  0  0  0  0  0
   17.5450   52.4984   15.0364 C   0  0  0  0  0  0  0  0  0  0  0  0
   17.2913   52.7216   13.5759 C   0  0  0  0  0  0  0  0  0  0  0  0
   17.3302   51.7886   12.5430 C   0  0  0  0  0  0  0  0  0  0  0  0
   17.0385   52.4010   11.3614 N   0  0  0  0  0  0  0  0  0  0  0  0
   16.8119   53.6990   11.5928 C   0  0  0  0  0  0  0  0  0  0  0  0
   16.4844   54.7710   10.8015 C   0  0  0  0  0  0  0  0  0  0  0  0
   16.3090   56.0363   11.3435 C   0  0  0  0  0  0  0  0  0  0  0  0
   16.4602   56.2554   12.7074 C   0  0  0  0  0  0  0  0  0  0  0  0
   16.7888   55.1690   13.4855 C   0  0  0  0  0  0  0  0  0  0  0  0
   16.9624   53.9151   12.9465 C   0  0  0  0  0  0  0  0  0  0  0  0
   17.2536   50.4542   16.4144 N   0  0  0  0  0  0  0  0  0  0  0  0
   16.4122   49.4794   16.8579 C   0  0  0  0  0  0  0  0  0  0  0  0
   16.9061   48.5066   17.6316 N   0  0  0  0  0  0  0  0  0  0  0  0
   18.1992   48.4413   17.9963 C   0  0  0  0  0  0  0  0  0  0  0  0
   18.7066   47.4424   18.7910 C   0  0  0  0  0  0  0  0  0  0  0  0
   20.0562   47.4045   19.1518 C   0  0  0  0  0  0  0  0  0  0  0  0
   20.9076   48.3906   18.7033 C   0  0  0  0  0  0  0  0  0  0  0  0
   20.3769   49.3871   17.9044 C   0  0  0  0  0  0  0  0  0  0  0  0
   19.0663   49.4331   17.5479 C   0  0  0  0  0  0  0  0  0  0  0  0
   18.5544   50.4323   16.7522 C   0  0  0  0  0  0  0  0  0  0  0  0
   19.3688   51.3148   16.3642 O   0  0  0  0  0  0  0  0  0  0  0  0
  1  2  1  0
  2  3  1  0
  3  4  1  6
  3  5  1  0
  5  6  1  1
  6  7  1  0
  7  8  2  0
  7  9  1  0
  9 10  1  1
 10 11  1  0
 11 12  2  0
 12 13  1  0
 13 14  1  0
 14 15  2  0
 15 16  1  0
 16 17  2  0
 17 18  1  0
 18 19  2  0
  9 20  1  0
 20 21  1  0
 21 22  2  0
 22 23  1  0
 23 24  2  0
 24 25  1  0
 25 26  2  0
 26 27  1  0
 27 28  2  0
 28 29  1  0
 29 30  2  0
 21  5  1  0
 28 23  1  0
 19 11  1  0
 29 20  1  0
 19 14  1  0
M  END
$$$$
