
     RDKit          3D

 24 26  0  0  0  0  0  0  0  0999 V2000
   14.6954   46.8251   21.2767 C   0  0  0  0  0  0  0  0  0  0  0  0
   13.9988   47.9253   20.6325 N   0  0  0  0  0  0  0  0  0  0  0  0
   12.7231   48.2145   20.8387 N   0  0  0  0  0  0  0  0  0  0  0  0
   12.3769   49.2519   20.1249 N   0  0  0  0  0  0  0  0  0  0  0  0
   13.4389   49.6506   19.4399 N   0  0  0  0  0  0  0  0  0  0  0  0
   14.4670   48.8171   19.7558 C   0  0  0  0  0  0  0  0  0  0  0  0
   16.1450   48.8868   19.1199 S   0  0  0  0  0  0  0  0  0  0  0  0
   16.3676   50.3636   18.1083 C   0  0  0  0  0  0  0  0  0  0  0  0
   16.9803   49.9433   16.8036 C   0  0  0  0  0  0  0  0  0  0  0  0
   16.4347   50.7896   15.6943 C   0  0  0  0  0  0  0  0  0  0  0  0
   15.2250   51.0412   15.6546 O   0  0  0  0  0  0  0  0  0  0  0  0
   17.3620   51.2768   14.7140 N   0  0  0  0  0  0  0  0  0  0  0  0
   16.8394   52.1417   13.6755 C   0  0  0  0  0  0  0  0  0  0  0  0
   17.1682   53.5920   13.9298 C   0  0  0  0  0  0  0  0  0  0  0  0
   16.0753   54.4752   13.3661 C   0  0  0  0  0  0  0  0  0  0  0  0
   16.4956   54.9599   12.0511 N   0  0  0  0  0  0  0  0  0  0  0  0
   17.0049   54.2761   11.0169 C   0  0  0  0  0  0  0  0  0  0  0  0
   17.2667   55.1183    9.9582 C   0  0  0  0  0  0  0  0  0  0  0  0
   16.9000   56.3719   10.3675 C   0  0  0  0  0  0  0  0  0  0  0  0
   16.9386   57.5900    9.7323 C   0  0  0  0  0  0  0  0  0  0  0  0
   16.4913   58.7126   10.4144 C   0  0  0  0  0  0  0  0  0  0  0  0
   16.0196   58.6060   11.6988 C   0  0  0  0  0  0  0  0  0  0  0  0
   15.9894   57.3704   12.3193 C   0  0  0  0  0  0  0  0  0  0  0  0
   16.4309   56.2484   11.6526 C   0  0  0  0  0  0  0  0  0  0  0  0
  1  2  1  0
  2  3  1  0
  3  4  2  0
  4  5  1  0
  5  6  2  0
  6  7  1  0
  7  8  1  0
  8  9  1  0
  9 10  1  0
 10 11  2  0
 10 12  1  0
 12 13  1  0
 13 14  1  0
 14 15  1  0
 15 16  1  0
 16 17  1  0
 17 18  2  0
 18 19  1  0
 19 20  2  0
 20 21  1  0
 21 22  2  0
 22 23  1  0
 23 24  2  0
  6  2  1  0
 24 16  1  0
 24 19  1  0
M  END
$$$$
