
     RDKit          3D

 25 26  0  0  0  0  0  0  0  0999 V2000
   -9.7230   62.1136   31.4458 C   0  0  0  0  0  0  0  0  0  0  0  0
   -8.5746   61.4375   30.9963 O   0  0  0  0  0  0  0  0  0  0  0  0
   -8.7008   60.0563   30.7537 C   0  0  0  0  0  0  0  0  0  0  0  0
   -9.8906   59.4130   30.9022 C   0  0  0  0  0  0  0  0  0  0  0  0
  -10.0457   58.0541   30.6665 C   0  0  0  0  0  0  0  0  0  0  0  0
  -11.4010   57.4614   30.9328 C   0  0  0  0  0  0  0  0  0  0  0  0
  -11.7968   56.7612   29.7723 N   0  0  0  0  0  0  0  0  0  0  0  0
  -12.4962   57.5288   28.8132 C   0  0  0  0  0  0  0  0  0  0  0  0
  -13.9799   57.2308   28.9271 C   0  0  0  0  0  0  0  0  0  0  0  0
  -14.5762   56.8941   27.6633 N   0  0  0  0  0  0  0  0  0  0  0  0
  -15.6753   56.0045   27.6343 C   0  0  0  0  0  0  0  0  0  0  0  0
  -15.9938   55.2458   26.3926 C   0  0  0  0  0  0  0  0  0  0  0  0
  -16.4105   55.8386   28.6589 O   0  0  0  0  0  0  0  0  0  0  0  0
   -8.9603   57.3358   30.2674 C   0  0  0  0  0  0  0  0  0  0  0  0
   -7.7435   57.9612   30.1095 C   0  0  0  0  0  0  0  0  0  0  0  0
   -7.5858   59.3301   30.3479 C   0  0  0  0  0  0  0  0  0  0  0  0
   -6.4356   60.0054   30.2227 O   0  0  0  0  0  0  0  0  0  0  0  0
   -5.2485   59.9762   30.4429 C   0  0  0  0  0  0  0  0  0  0  0  0
   -3.8241   59.9406   30.7058 C   0  0  0  0  0  0  0  0  0  0  0  0
   -3.2908   60.7375   31.7100 C   0  0  0  0  0  0  0  0  0  0  0  0
   -1.9399   60.6977   32.0135 C   0  0  0  0  0  0  0  0  0  0  0  0
   -1.1163   59.8621   31.3158 C   0  0  0  0  0  0  0  0  0  0  0  0
   -1.6256   59.0684   30.3194 C   0  0  0  0  0  0  0  0  0  0  0  0
   -0.8044   58.2575   29.6351 F   0  0  0  0  0  0  0  0  0  0  0  0
   -2.9577   59.1009   30.0135 C   0  0  0  0  0  0  0  0  0  0  0  0
  1  2  1  0
  2  3  1  0
  3  4  2  0
  4  5  1  0
  5  6  1  0
  6  7  1  0
  7  8  1  0
  8  9  1  0
  9 10  1  0
 10 11  1  0
 11 12  1  0
 11 13  2  0
  5 14  2  0
 14 15  1  0
 15 16  2  0
 16 17  1  0
 17 18  1  0
 18 19  1  0
 19 20  2  0
 20 21  1  0
 21 22  2  0
 22 23  1  0
 23 24  1  0
 23 25  2  0
 16  3  1  0
 25 19  1  0
M  END
$$$$
