
     RDKit          3D

 25 27  0  0  0  0  0  0  0  0999 V2000
   30.7038   82.7863   41.4440 C   0  0  0  0  0  0  0  0  0  0  0  0
   31.3048   81.5445   42.0144 C   0  0  0  0  0  0  0  0  0  0  0  0
   31.8511   81.7168   43.3374 N   0  0  0  0  0  0  0  0  0  0  0  0
   31.0882   81.5713   44.4328 C   0  0  0  0  0  0  0  0  0  0  0  0
   29.8616   81.2770   44.3326 O   0  0  0  0  0  0  0  0  0  0  0  0
   31.6188   81.7389   45.7131 C   0  0  0  0  0  0  0  0  0  0  0  0
   31.1254   81.6626   46.9608 N   0  0  0  0  0  0  0  0  0  0  0  0
   32.0834   81.9190   47.8495 C   0  0  0  0  0  0  0  0  0  0  0  0
   32.0500   81.9622   49.6212 S   0  0  0  0  0  0  0  0  0  0  0  0
   33.1128   80.7191   50.3709 C   0  0  0  0  0  0  0  0  0  0  0  0
   34.5592   81.0674   50.1166 C   0  0  0  0  0  0  0  0  0  0  0  0
   35.2726   80.8028   51.2657 O   0  0  0  0  0  0  0  0  0  0  0  0
   35.8205   81.9097   51.8696 C   0  0  0  0  0  0  0  0  0  0  0  0
   36.5988   81.6024   53.1210 C   0  0  0  0  0  0  0  0  0  0  0  0
   38.0809   81.6201   52.7128 C   0  0  0  0  0  0  0  0  0  0  0  0
   38.1507   80.8641   51.4031 C   0  0  0  0  0  0  0  0  0  0  0  0
   37.5049   81.7016   50.3360 C   0  0  0  0  0  0  0  0  0  0  0  0
   36.6089   82.5727   50.9573 O   0  0  0  0  0  0  0  0  0  0  0  0
   33.2197   82.1659   47.1465 N   0  0  0  0  0  0  0  0  0  0  0  0
   32.9471   82.0578   45.8217 C   0  0  0  0  0  0  0  0  0  0  0  0
   33.7023   82.2011   44.7179 N   0  0  0  0  0  0  0  0  0  0  0  0
   35.0976   82.5379   44.8892 C   0  0  0  0  0  0  0  0  0  0  0  0
   35.1645   84.0631   44.9867 C   0  0  0  0  0  0  0  0  0  0  0  0
   33.1349   82.0269   43.5034 C   0  0  0  0  0  0  0  0  0  0  0  0
   33.8904   82.1735   42.4922 O   0  0  0  0  0  0  0  0  0  0  0  0
  1  2  1  0
  2  3  1  0
  3  4  1  0
  4  5  2  0
  4  6  1  0
  6  7  1  0
  7  8  1  0
  8  9  1  0
  9 10  1  0
 10 11  1  0
 11 12  1  0
 12 13  1  0
 13 14  1  0
 14 15  1  0
 15 16  1  0
 16 17  1  0
 17 18  1  0
  8 19  2  0
 19 20  1  0
 20 21  1  0
 21 22  1  0
 22 23  1  0
 21 24  1  0
 24 25  2  0
 24  3  1  0
 20  6  2  0
 18 13  1  0
M  END
$$$$
