
     RDKit          3D

 22 25  0  0  0  0  0  0  0  0999 V2000
   -3.1901   69.2072   33.2290 C   0  0  0  0  0  0  0  0  0  0  0  0
   -2.9701   68.5538   31.9952 O   0  0  0  0  0  0  0  0  0  0  0  0
   -3.1541   67.1701   31.8525 C   0  0  0  0  0  0  0  0  0  0  0  0
   -4.2746   66.7091   31.1922 C   0  0  0  0  0  0  0  0  0  0  0  0
   -4.4726   65.3410   31.0420 C   0  0  0  0  0  0  0  0  0  0  0  0
   -3.5837   64.4165   31.5319 C   0  0  0  0  0  0  0  0  0  0  0  0
   -3.7845   62.9773   31.3788 C   0  0  0  0  0  0  0  0  0  0  0  0
   -4.9167   62.3522   30.9552 N   0  0  0  0  0  0  0  0  0  0  0  0
   -4.7420   61.0210   30.9368 C   0  0  0  0  0  0  0  0  0  0  0  0
   -5.7386   60.0353   30.5306 C   0  0  0  0  0  0  0  0  0  0  0  0
   -7.0868   60.3286   30.6637 N   0  0  0  0  0  0  0  0  0  0  0  0
   -7.6444   60.6969   31.9342 C   0  0  0  0  0  0  0  0  0  0  0  0
   -8.7563   61.3248   31.1662 C   0  0  0  0  0  0  0  0  0  0  0  0
   -9.9712   60.5698   30.8515 C   0  0  0  0  0  2  0  0  0  0  0  0
  -10.7696   61.8271   31.2319 C   0  0  0  0  0  0  0  0  0  0  0  0
   -9.4574   62.4867   31.6843 C   0  0  0  0  0  0  0  0  0  0  0  0
   -7.6958   61.4869   30.1097 C   0  0  0  0  0  0  0  0  0  0  0  0
   -3.4481   60.8283   31.3680 C   0  0  0  0  0  0  0  0  0  0  0  0
   -2.7273   59.5221   31.5393 C   0  0  0  0  0  0  0  0  0  0  0  0
   -2.9335   62.0083   31.6128 O   0  0  0  0  0  0  0  0  0  0  0  0
   -2.4724   64.8902   32.1872 C   0  0  0  0  0  0  0  0  0  0  0  0
   -2.2544   66.2571   32.3491 C   0  0  0  0  0  0  0  0  0  0  0  0
  1  2  1  0
  2  3  1  0
  3  4  2  0
  4  5  1  0
  5  6  2  0
  6  7  1  0
  7  8  2  0
  8  9  1  0
  9 10  1  0
 10 11  1  0
 11 12  1  0
 12 13  1  0
 13 14  1  0
 14 15  1  0
 15 16  1  0
 13 17  1  0
  9 18  2  0
 18 19  1  0
 18 20  1  0
  6 21  1  0
 21 22  2  0
 22  3  1  0
 20  7  1  0
 17 11  1  0
 16 13  1  0
M  RAD  1  14   3
M  END
$$$$
