
     RDKit          3D

 20 22  0  0  0  0  0  0  0  0999 V2000
   16.3093   60.0183   12.5536 C   0  0  0  0  0  0  0  0  0  0  0  0
   16.1535   59.2794   11.2352 C   0  0  0  0  0  0  0  0  0  0  0  0
   15.3639   60.1991   10.2876 C   0  0  0  0  0  0  0  0  0  0  0  0
   15.4483   58.0905   11.3692 O   0  0  0  0  0  0  0  0  0  0  0  0
   15.9847   56.8642   11.6874 C   0  0  0  0  0  0  0  0  0  0  0  0
   17.0711   56.2934   11.0622 C   0  0  0  0  0  0  0  0  0  0  0  0
   17.5899   55.0502   11.4077 C   0  0  0  0  0  0  0  0  0  0  0  0
   16.9929   54.3471   12.4261 C   0  0  0  0  0  0  0  0  0  0  0  0
   15.8941   54.9175   13.0630 C   0  0  0  0  0  0  0  0  0  0  0  0
   15.3754   56.1412   12.7304 C   0  0  0  0  0  0  0  0  0  0  0  0
   14.2005   56.6678   13.4677 C   0  0  0  0  0  0  0  0  0  0  0  0
   13.3700   57.6036   12.7331 C   0  0  0  0  0  0  0  0  0  0  0  0
   13.0761   58.8510   13.2294 C   0  0  0  0  0  0  0  0  0  0  0  0
   12.2739   59.7376   12.4936 C   0  0  0  0  0  0  0  0  0  0  0  0
   11.7867   59.3744   11.2983 N   0  0  0  0  0  0  0  0  0  0  0  0
   12.0669   58.1622   10.8060 C   0  0  0  0  0  0  0  0  0  0  0  0
   12.8535   57.2665   11.5056 C   0  0  0  0  0  0  0  0  0  0  0  0
   13.4470   55.4865   13.9238 N   0  0  0  0  0  0  0  0  0  0  0  0
   14.3232   54.8636   14.9211 C   0  0  0  0  0  0  0  0  0  0  0  0
   15.3249   54.0547   14.1599 C   0  0  0  0  0  0  0  0  0  0  0  0
  1  2  1  0
  2  3  1  0
  2  4  1  0
  4  5  1  0
  5  6  2  0
  6  7  1  0
  7  8  2  0
  8  9  1  0
  9 10  2  0
 10 11  1  0
 11 12  1  0
 12 13  2  0
 13 14  1  0
 14 15  2  0
 15 16  1  0
 16 17  2  0
 11 18  1  0
 18 19  1  0
 19 20  1  0
 10  5  1  0
 17 12  1  0
 20  9  1  0
M  END
$$$$
