
     RDKit          3D

 21 23  0  0  0  0  0  0  0  0999 V2000
   17.5452   46.3996   20.7682 C   0  0  0  0  0  0  0  0  0  0  0  0
   16.3563   47.0342   20.0445 C   0  0  0  0  0  0  0  0  0  0  0  0
   15.0529   46.4418   20.1581 C   0  0  0  0  0  0  0  0  0  0  0  0
   14.0670   47.5222   19.1677 S   0  0  0  0  0  0  0  0  0  0  0  0
   15.5240   48.6456   18.7158 C   0  0  0  0  0  0  0  0  0  0  0  0
   15.2239   49.8229   17.8167 C   0  0  0  0  0  0  0  0  0  0  0  0
   16.0485   49.7935   16.6371 N   0  0  0  0  0  0  0  0  0  0  0  0
   15.1535   50.1235   15.5158 C   0  0  0  0  0  0  0  0  0  0  0  0
   15.2495   51.6176   15.2453 C   0  0  0  0  0  0  0  0  0  0  0  0
   16.5788   51.8094   14.5234 C   0  0  0  0  0  0  0  0  0  0  0  0
   16.8004   53.0727   14.1185 O   0  0  0  0  0  0  0  0  0  0  0  0
   16.4153   53.4824   12.8886 C   0  0  0  0  0  0  0  0  0  0  0  0
   16.4271   54.9542   12.7922 C   0  0  0  0  0  0  0  0  0  0  0  0
   15.3182   55.6457   12.3871 C   0  0  0  0  0  0  0  0  0  0  0  0
   15.3372   57.0394   12.2822 C   0  0  0  0  0  0  0  0  0  0  0  0
   16.4923   57.7217   12.5931 C   0  0  0  0  0  0  0  0  0  0  0  0
   17.6205   57.0588   13.0025 C   0  0  0  0  0  0  0  0  0  0  0  0
   17.5682   55.6832   13.0952 C   0  0  0  0  0  0  0  0  0  0  0  0
   17.6324   51.2529   15.4579 C   0  0  0  0  0  0  0  0  0  0  0  0
   17.0532   50.8307   16.7862 C   0  0  0  0  0  0  0  0  0  0  0  0
   16.3706   48.0944   19.3011 N   0  0  0  0  0  0  0  0  0  0  0  0
  1  2  1  0
  2  3  2  0
  3  4  1  0
  4  5  1  0
  5  6  1  0
  6  7  1  0
  7  8  1  0
  8  9  1  0
  9 10  1  0
 10 11  1  0
 11 12  1  0
 12 13  1  0
 13 14  2  0
 14 15  1  0
 15 16  2  0
 16 17  1  0
 17 18  2  0
 10 19  1  0
 19 20  1  0
  5 21  2  0
 21  2  1  0
 20  7  1  0
 18 13  1  0
M  END
$$$$
