
     RDKit          3D

 42 46  0  0  0  0  0  0  0  0999 V2000
   11.0292   91.0559   65.5332 C   0  0  0  0  0  0  0  0  0  0  0  0
   12.3356   91.5800   64.9999 C   0  0  0  0  0  0  0  0  0  0  0  0
   13.4975   90.9015   65.3033 C   0  0  0  0  0  0  0  0  0  0  0  0
   14.7032   91.3341   64.8438 C   0  0  0  0  0  0  0  0  0  0  0  0
   14.7493   92.4719   64.0626 C   0  0  0  0  0  0  0  0  0  0  0  0
   13.6096   93.1646   63.7474 C   0  0  0  0  0  0  0  0  0  0  0  0
   13.6830   94.2943   62.9722 O   0  0  0  0  0  0  0  0  0  0  0  0
   12.5679   95.0774   62.7305 C   0  0  0  0  0  0  0  0  0  0  0  0
   12.6034   95.8685   61.4796 C   0  0  0  0  0  0  0  0  0  0  0  0
   12.9636   95.4140   60.3545 O   0  0  0  0  0  0  0  0  0  0  0  0
   12.2109   97.2215   61.5346 N   0  0  0  0  0  0  0  0  0  0  0  0
   11.5984   97.8985   60.4357 C   0  0  0  0  0  0  0  0  0  0  0  0
   12.3074   98.0637   59.2631 C   0  0  0  0  0  0  0  0  0  0  0  0
   11.7779   98.7074   58.1650 C   0  0  0  0  0  0  0  0  0  0  0  0
   12.5179   98.8843   56.9369 N   0  0  0  0  0  0  0  0  0  0  0  0
   13.7447   99.5625   56.8972 C   0  0  0  0  0  0  0  0  0  0  0  0
   14.4062   99.7025   57.9706 O   0  0  0  0  0  0  0  0  0  0  0  0
   14.2431  100.0932   55.6424 C   0  0  0  0  0  0  0  0  0  0  0  0
   15.3817  100.8902   55.6873 C   0  0  0  0  0  0  0  0  0  0  0  0
   15.8906  101.4176   54.5116 C   0  0  0  0  0  0  0  0  0  0  0  0
   15.3208  101.1928   53.2746 C   0  0  0  0  0  0  0  0  0  0  0  0
   15.8290  101.7141   52.1401 N   0  0  0  0  0  0  0  0  0  0  0  0
   15.2497  101.4765   50.9495 C   0  0  0  0  0  0  0  0  0  0  0  0
   15.7920  102.0343   49.7307 N   0  0  0  0  0  0  0  0  0  0  0  0
   17.1786  102.3644   49.6958 C   0  0  0  0  0  0  0  0  0  0  0  0
   17.7815  102.5735   48.3533 C   0  0  0  0  0  0  0  0  0  0  0  0
   16.8588  102.3509   47.1918 C   0  0  0  0  0  0  0  0  0  0  0  0
   17.4095  103.1580   46.0495 C   0  0  0  0  0  0  0  0  0  0  0  0
   16.5271  103.7008   45.0698 N   0  0  0  0  0  0  0  0  0  0  0  0
   18.6328  103.3837   45.9109 O   0  0  0  0  0  0  0  0  0  0  0  0
   15.4807  102.9089   47.4662 C   0  0  0  0  0  0  0  0  0  0  0  0
   14.8438  102.2018   48.6523 C   0  0  0  0  0  0  0  0  0  0  0  0
   14.1162  100.6836   50.9022 C   0  0  0  0  0  0  0  0  0  0  0  0
   13.5244  100.4371   49.6961 F   0  0  0  0  0  0  0  0  0  0  0  0
   13.5623  100.1299   52.0363 C   0  0  0  0  0  0  0  0  0  0  0  0
   14.1874  100.3988   53.2351 C   0  0  0  0  0  0  0  0  0  0  0  0
   13.6749   99.8672   54.4212 C   0  0  0  0  0  0  0  0  0  0  0  0
   10.4921   99.1926   58.2711 C   0  0  0  0  0  0  0  0  0  0  0  0
    9.7702   99.0272   59.4570 C   0  0  0  0  0  0  0  0  0  0  0  0
   10.3112   98.3819   60.5477 C   0  0  0  0  0  0  0  0  0  0  0  0
    9.5084   98.2268   61.7893 C   0  0  0  0  0  0  0  0  0  0  0  0
   12.3977   92.7126   64.2205 C   0  0  0  0  0  0  0  0  0  0  0  0
  1  2  1  0
  2  3  2  0
  3  4  1  0
  4  5  2  0
  5  6  1  0
  6  7  1  0
  7  8  1  0
  8  9  1  0
  9 10  2  0
  9 11  1  0
 11 12  1  0
 12 13  2  0
 13 14  1  0
 14 15  1  0
 15 16  1  0
 16 17  2  0
 16 18  1  0
 18 19  2  0
 19 20  1  0
 20 21  2  0
 21 22  1  0
 22 23  2  0
 23 24  1  0
 24 25  1  0
 25 26  1  0
 26 27  1  0
 27 28  1  0
 28 29  1  0
 28 30  2  0
 27 31  1  0
 31 32  1  0
 23 33  1  0
 33 34  1  0
 33 35  2  0
 35 36  1  0
 36 37  2  0
 14 38  2  0
 38 39  1  0
 39 40  2  0
 40 41  1  0
  6 42  2  0
 42  2  1  0
 40 12  1  0
 37 18  1  0
 36 21  1  0
 32 24  1  0
M  END
$$$$
