
     RDKit          3D

 22 23  0  0  0  0  0  0  0  0999 V2000
   12.3466   94.4213   64.2802 C   0  0  0  0  0  0  0  0  0  0  0  0
   12.3213   95.6418   63.4228 C   0  0  0  0  0  0  0  0  0  0  0  0
   12.8677   95.4183   62.0463 C   0  0  0  0  0  0  0  0  0  0  0  0
   14.3013   94.9434   62.0591 C   0  0  0  0  0  0  0  0  0  0  0  0
   15.0656   95.2944   60.8280 C   0  0  0  0  0  0  0  0  0  0  0  0
   12.8518   96.6767   61.2811 N   0  0  0  0  0  0  0  0  0  0  0  0
   11.7208   97.1015   60.5834 C   0  0  0  0  0  0  0  0  0  0  0  0
   10.6560   96.4092   60.7959 O   0  0  0  0  0  0  0  0  0  0  0  0
   11.6036   98.2101   59.6640 C   0  0  0  0  0  0  0  0  0  0  0  0
   12.6485   98.4621   58.8078 N   0  0  0  0  0  0  0  0  0  0  0  0
   12.6360   99.4604   57.9232 C   0  0  0  0  0  0  0  0  0  0  0  0
   13.7466   99.7240   57.0167 C   0  0  0  0  0  0  0  0  0  0  0  0
   13.5726  100.4232   55.8433 C   0  0  0  0  0  0  0  0  0  0  0  0
   14.6037  100.6699   54.9989 N   0  0  0  0  0  0  0  0  0  0  0  0
   15.8393  100.2360   55.2826 C   0  0  0  0  0  0  0  0  0  0  0  0
   16.0227   99.5316   56.4616 C   0  0  0  0  0  0  0  0  0  0  0  0
   14.9851   99.2873   57.3043 N   0  0  0  0  0  0  0  0  0  0  0  0
   11.5507  100.2482   57.8744 N   0  0  0  0  0  0  0  0  0  0  0  0
   10.4883  100.0784   58.6677 C   0  0  0  0  0  0  0  0  0  0  0  0
    9.4681  100.8070   58.6326 O   0  0  0  0  0  0  0  0  0  0  0  0
   10.5073   99.0190   59.6031 C   0  0  0  0  0  0  0  0  0  0  0  0
    9.4343   98.8290   60.4207 O   0  0  0  0  0  0  0  0  0  0  0  0
  1  2  1  0
  2  3  1  0
  3  4  1  0
  4  5  1  0
  3  6  1  0
  6  7  1  0
  7  8  2  0
  7  9  1  0
  9 10  1  0
 10 11  2  0
 11 12  1  0
 12 13  2  0
 13 14  1  0
 14 15  2  0
 15 16  1  0
 16 17  2  0
 11 18  1  0
 18 19  1  0
 19 20  2  0
 19 21  1  0
 21 22  1  0
 21  9  2  0
 17 12  1  0
M  END
$$$$
