
     RDKit          3D

 28 31  0  0  0  0  0  0  0  0999 V2000
   16.0430  102.3366   53.2598 C   0  0  0  0  0  0  0  0  0  0  0  0
   15.1302  101.2760   53.2171 O   0  0  0  0  0  0  0  0  0  0  0  0
   14.3992  100.9198   54.3495 C   0  0  0  0  0  0  0  0  0  0  0  0
   13.8489   99.6685   54.4281 C   0  0  0  0  0  0  0  0  0  0  0  0
   13.1346   99.3174   55.5317 C   0  0  0  0  0  0  0  0  0  0  0  0
   12.9418  100.1959   56.5961 C   0  0  0  0  0  0  0  0  0  0  0  0
   12.1901   99.7802   57.7250 N   0  0  0  0  0  0  0  0  0  0  0  0
   11.0546  100.3608   58.1365 C   0  0  0  0  0  0  0  0  0  0  0  0
   10.3248  101.5278   57.5500 C   0  0  0  0  0  0  0  0  0  0  0  0
   10.6683   99.6636   59.2344 N   0  0  0  0  0  0  0  0  0  0  0  0
   11.5353   98.6722   59.5072 C   0  0  0  0  0  0  0  0  0  0  0  0
   11.5970   97.7010   60.4891 C   0  0  0  0  0  0  0  0  0  0  0  0
   12.6171   96.7835   60.5418 C   0  0  0  0  0  0  0  0  0  0  0  0
   12.7255   95.7455   61.5554 C   0  0  0  0  0  0  0  0  0  0  0  0
   13.8163   95.0798   61.6273 O   0  0  0  0  0  0  0  0  0  0  0  0
   11.6766   95.4539   62.4516 N   0  0  0  0  0  0  0  0  0  0  0  0
   11.8669   94.8407   63.7425 C   0  0  0  0  0  0  0  0  0  0  0  0
   11.4574   93.4375   63.8298 C   0  0  0  0  0  0  0  0  0  0  0  0
   12.3843   92.4382   63.9012 C   0  0  0  0  0  0  0  0  0  0  0  0
   12.0274   91.0971   63.9740 C   0  0  0  0  0  0  0  0  0  0  0  0
   10.6854   90.7803   63.9735 C   0  0  0  0  0  0  0  0  0  0  0  0
    9.7181   91.7614   63.9031 C   0  0  0  0  0  0  0  0  0  0  0  0
   10.1157   93.0787   63.8320 C   0  0  0  0  0  0  0  0  0  0  0  0
   13.5976   96.8600   59.5681 C   0  0  0  0  0  0  0  0  0  0  0  0
   13.5393   97.8253   58.5893 C   0  0  0  0  0  0  0  0  0  0  0  0
   12.5103   98.7550   58.5314 C   0  0  0  0  0  0  0  0  0  0  0  0
   13.4989  101.4636   56.5175 C   0  0  0  0  0  0  0  0  0  0  0  0
   14.2217  101.8163   55.3982 C   0  0  0  0  0  0  0  0  0  0  0  0
  1  2  1  0
  2  3  1  0
  3  4  2  0
  4  5  1  0
  5  6  2  0
  6  7  1  0
  7  8  1  0
  8  9  1  0
  8 10  2  0
 10 11  1  0
 11 12  2  0
 12 13  1  0
 13 14  1  0
 14 15  2  0
 14 16  1  0
 16 17  1  0
 17 18  1  0
 18 19  2  0
 19 20  1  0
 20 21  2  0
 21 22  1  0
 22 23  2  0
 13 24  2  0
 24 25  1  0
 25 26  2  0
  6 27  1  0
 27 28  2  0
 28  3  1  0
 26  7  1  0
 26 11  1  0
 23 18  1  0
M  END
$$$$
