
     RDKit          3D

 26 28  0  0  0  0  0  0  0  0999 V2000
   12.6469   93.7202   61.1315 O   0  0  0  0  0  0  0  0  0  0  0  0
   13.2769   94.3686   62.1663 C   0  0  0  0  0  0  0  0  0  0  0  0
   14.2972   93.5645   62.9147 C   0  0  0  0  0  0  0  0  0  0  0  0
   13.8421   92.8735   63.9562 O   0  0  0  0  0  0  0  0  0  0  0  0
   14.0270   91.5540   64.0858 C   0  0  0  0  0  0  0  0  0  0  0  0
   14.2057   91.2113   65.5867 C   0  0  0  0  0  0  0  0  0  0  0  0
   14.3899   89.8619   65.7224 F   0  0  0  0  0  0  0  0  0  0  0  0
   15.2902   91.9099   66.0580 F   0  0  0  0  0  0  0  0  0  0  0  0
   13.0716   91.6254   66.2398 F   0  0  0  0  0  0  0  0  0  0  0  0
   12.3536   95.2133   62.9729 C   0  0  0  0  0  0  0  0  0  0  0  0
   11.6569   96.1418   62.0726 N   0  0  0  0  0  0  0  0  0  0  0  0
   10.2692   96.2908   62.5196 C   0  0  0  0  0  0  0  0  0  0  0  0
    9.7696   97.5181   61.7431 C   0  0  0  0  0  0  0  0  0  0  0  0
    9.7050   97.1325   60.3899 N   0  0  0  0  0  0  0  0  0  0  0  0
    8.9348   97.8798   59.4875 C   0  0  0  0  0  0  0  0  0  0  0  0
    9.7513   99.0346   58.9918 C   0  0  0  0  0  0  0  0  0  0  0  0
    9.7622  100.2928   59.4510 N   0  0  0  0  0  0  0  0  0  0  0  0
   10.6482  101.0174   58.7194 C   0  0  0  0  0  0  0  0  0  0  0  0
   11.0588  102.3328   58.7477 C   0  0  0  0  0  0  0  0  0  0  0  0
   11.9990  102.7596   57.8440 C   0  0  0  0  0  0  0  0  0  0  0  0
   12.5602  101.9158   56.8931 C   0  0  0  0  0  0  0  0  0  0  0  0
   12.1247  100.6094   56.8962 C   0  0  0  0  0  0  0  0  0  0  0  0
   11.1770  100.1489   57.7952 C   0  0  0  0  0  0  0  0  0  0  0  0
   10.6201   98.9322   57.9700 N   0  0  0  0  0  0  0  0  0  0  0  0
   10.4112   96.0015   59.9586 C   0  0  0  0  0  0  0  0  0  0  0  0
   11.6889   95.6867   60.6969 C   0  0  0  0  0  0  0  0  0  0  0  0
  1  2  1  0
  2  3  1  0
  3  4  1  0
  4  5  1  0
  5  6  1  0
  6  7  1  0
  6  8  1  0
  6  9  1  0
  2 10  1  0
 10 11  1  0
 11 12  1  0
 12 13  1  0
 13 14  1  0
 14 15  1  0
 15 16  1  0
 16 17  2  0
 17 18  1  0
 18 19  2  0
 19 20  1  0
 20 21  2  0
 21 22  1  0
 22 23  2  0
 23 24  1  0
 14 25  1  0
 25 26  1  0
 26 11  1  0
 24 16  1  0
 23 18  1  0
M  END
$$$$
