
     RDKit          3D

 23 23  0  0  0  0  0  0  0  0999 V2000
  -12.1278   61.4478   28.7323 C   0  0  0  0  0  0  0  0  0  0  0  0
  -10.9043   60.8329   29.2663 C   0  0  0  0  0  0  0  0  0  0  0  0
  -10.8015   60.4352   30.6828 C   0  0  0  0  0  0  0  0  0  0  0  0
   -9.5413   59.8707   31.1993 C   0  0  0  0  0  0  0  0  0  0  0  0
   -9.4769   58.3806   31.0858 C   0  0  0  0  0  0  0  0  0  0  0  0
   -8.3844   57.8004   31.9942 C   0  0  0  0  0  0  0  0  0  0  0  0
   -8.4280   56.2908   31.8949 C   0  0  0  0  0  0  0  0  0  0  0  0
   -8.3706   60.4007   30.4930 N   0  0  0  0  0  0  0  0  0  0  0  0
   -7.2410   60.9305   31.1717 C   0  0  0  0  0  0  0  0  0  0  0  0
   -7.2421   61.0150   32.4190 O   0  0  0  0  0  0  0  0  0  0  0  0
   -6.1009   61.3712   30.4752 N   0  0  0  0  0  0  0  0  0  0  0  0
   -4.9045   61.7981   31.0356 C   0  0  0  0  0  0  0  0  0  0  0  0
   -4.7697   63.0870   31.4928 C   0  0  0  0  0  0  0  0  0  0  0  0
   -5.9098   64.0234   31.3851 C   0  0  0  0  0  0  0  0  0  0  0  0
   -6.8424   63.8698   32.5887 C   0  0  0  0  0  0  0  0  0  0  0  0
   -5.3538   65.4321   31.4486 C   0  0  0  0  0  0  0  0  0  0  0  0
   -3.5667   63.5186   32.0572 C   0  0  0  0  0  0  0  0  0  0  0  0
   -2.4975   62.6371   32.1571 C   0  0  0  0  0  0  0  0  0  0  0  0
   -2.6536   61.3386   31.6892 C   0  0  0  0  0  0  0  0  0  0  0  0
   -3.8472   60.9267   31.1344 C   0  0  0  0  0  0  0  0  0  0  0  0
   -4.0151   59.5650   30.6423 C   0  0  0  0  0  0  0  0  0  0  0  0
   -3.8635   58.5057   31.7023 C   0  0  0  0  0  0  0  0  0  0  0  0
   -2.9440   59.3274   29.5742 C   0  0  0  0  0  0  0  0  0  0  0  0
  1  2  1  0
  2  3  1  0
  3  4  1  0
  4  5  1  0
  5  6  1  0
  6  7  1  0
  4  8  1  0
  8  9  1  0
  9 10  2  0
  9 11  1  0
 11 12  1  0
 12 13  2  0
 13 14  1  0
 14 15  1  0
 14 16  1  0
 13 17  1  0
 17 18  2  0
 18 19  1  0
 19 20  2  0
 20 21  1  0
 21 22  1  0
 21 23  1  0
 20 12  1  0
M  END
$$$$
