
     RDKit          3D

 28 31  0  0  0  0  0  0  0  0999 V2000
   14.6710   99.8215   56.3400 C   0  0  0  0  0  0  0  0  0  0  0  0
   13.9135   99.2106   57.4689 C   0  0  0  0  0  0  0  0  0  0  0  0
   12.7709   98.4894   57.2320 C   0  0  0  0  0  0  0  0  0  0  0  0
   12.0503   97.9098   58.2865 C   0  0  0  0  0  0  0  0  0  0  0  0
   10.8306   97.1554   57.9974 C   0  0  0  0  0  0  0  0  0  0  0  0
   12.4597   98.0411   59.5919 C   0  0  0  0  0  0  0  0  0  0  0  0
   11.7506   97.4790   60.7154 C   0  0  0  0  0  0  0  0  0  0  0  0
   12.3273   96.3560   61.4440 C   0  0  0  0  0  0  0  0  0  0  0  0
   13.6778   96.1637   61.3619 C   0  0  0  0  0  0  0  0  0  0  0  0
   14.3032   95.1256   62.0032 C   0  0  0  0  0  0  0  0  0  0  0  0
   15.6928   94.9524   61.9017 C   0  0  0  0  0  0  0  0  0  0  0  0
   16.3260   93.9143   62.5419 C   0  0  0  0  0  0  0  0  0  0  0  0
   15.5391   93.0586   63.2819 C   0  0  0  0  0  0  0  0  0  0  0  0
   14.1729   93.2173   63.3900 C   0  0  0  0  0  0  0  0  0  0  0  0
   13.5330   94.2614   62.7467 C   0  0  0  0  0  0  0  0  0  0  0  0
   12.2154   94.4612   62.8176 N   0  0  0  0  0  0  0  0  0  0  0  0
   11.5801   95.4814   62.1909 C   0  0  0  0  0  0  0  0  0  0  0  0
   10.1887   95.6134   62.3217 O   0  0  0  0  0  0  0  0  0  0  0  0
    9.5313   94.7923   63.2208 C   0  0  0  0  0  0  0  0  0  0  0  0
    9.6085   95.0541   64.5609 C   0  0  0  0  0  0  0  0  0  0  0  0
    8.9750   94.2743   65.5275 C   0  0  0  0  0  0  0  0  0  0  0  0
    8.2336   93.1823   65.0894 C   0  0  0  0  0  0  0  0  0  0  0  0
    7.5815   92.3674   65.9773 F   0  0  0  0  0  0  0  0  0  0  0  0
    8.1352   92.8904   63.7449 C   0  0  0  0  0  0  0  0  0  0  0  0
    8.7832   93.6969   62.8347 C   0  0  0  0  0  0  0  0  0  0  0  0
   13.6126   98.7747   59.7847 C   0  0  0  0  0  0  0  0  0  0  0  0
   14.0668   98.9546   60.9489 O   0  0  0  0  0  0  0  0  0  0  0  0
   14.3043   99.3336   58.7461 N   0  0  0  0  0  0  0  0  0  0  0  0
  1  2  1  0
  2  3  2  0
  3  4  1  0
  4  5  1  0
  4  6  2  0
  6  7  1  0
  7  8  1  0
  8  9  2  0
  9 10  1  0
 10 11  2  0
 11 12  1  0
 12 13  2  0
 13 14  1  0
 14 15  2  0
 15 16  1  0
 16 17  2  0
 17 18  1  0
 18 19  1  0
 19 20  2  0
 20 21  1  0
 21 22  2  0
 22 23  1  0
 22 24  1  0
 24 25  2  0
  6 26  1  0
 26 27  2  0
 26 28  1  0
 28  2  1  0
 17  8  1  0
 25 19  1  0
 15 10  1  0
M  END
$$$$
