
     RDKit          3D

 25 27  0  0  0  0  0  0  0  0999 V2000
   37.0139   82.5274   53.9096 C   0  0  0  0  0  0  0  0  0  0  0  0
   37.5702   81.6269   52.9392 N   0  0  0  0  0  0  0  0  0  0  0  0
   37.2549   80.2532   53.1600 C   0  0  0  0  0  0  0  0  0  0  0  0
   37.3250   82.0708   51.5876 C   0  0  0  0  0  0  0  0  0  0  0  0
   35.8848   82.3432   51.3023 C   0  0  0  0  0  0  0  0  0  0  0  0
   35.5464   82.1247   49.9504 O   0  0  0  0  0  0  0  0  0  0  0  0
   34.2388   82.1331   49.5569 N   0  0  0  0  0  0  0  0  0  0  0  0
   33.8786   81.9029   48.3293 C   0  0  0  0  0  0  0  0  0  0  0  0
   32.5863   82.4419   47.8344 C   0  0  0  0  0  0  0  0  0  0  0  0
   31.4910   81.6080   48.4737 C   0  0  0  0  0  0  0  0  0  0  0  0
   31.3628   82.0667   49.8621 C   0  0  0  0  0  0  0  0  0  0  0  0
   30.7172   81.3290   50.8310 C   0  0  0  0  0  0  0  0  0  0  0  0
   30.1362   80.1240   50.5482 F   0  0  0  0  0  0  0  0  0  0  0  0
   30.6691   81.8617   52.1075 C   0  0  0  0  0  0  0  0  0  0  0  0
   31.2253   83.0674   52.4400 C   0  0  0  0  0  0  0  0  0  0  0  0
   31.8666   83.8002   51.4757 C   0  0  0  0  0  0  0  0  0  0  0  0
   31.9310   83.2989   50.2018 C   0  0  0  0  0  0  0  0  0  0  0  0
   32.5692   84.0269   49.2393 F   0  0  0  0  0  0  0  0  0  0  0  0
   30.2254   81.5504   47.6936 C   0  0  0  0  0  0  0  0  0  0  0  0
   30.4569   81.7494   46.2004 C   0  0  0  0  0  0  0  0  0  0  0  0
   30.4592   83.1911   45.8197 C   0  0  0  0  0  0  0  0  0  0  0  0
   31.9146   83.5881   45.7147 C   0  0  0  0  0  0  0  0  0  0  0  0
   32.5991   82.3931   46.3449 C   0  0  0  0  0  0  0  0  0  0  0  0
   31.7772   81.2727   45.9101 N   0  0  0  0  0  0  0  0  0  0  0  0
   31.9898   81.0790   44.4862 C   0  0  0  0  0  0  0  0  0  0  0  0
  1  2  1  0
  2  3  1  0
  2  4  1  0
  4  5  1  0
  5  6  1  0
  6  7  1  0
  7  8  2  3
  8  9  1  0
  9 10  1  0
 10 11  1  0
 11 12  2  0
 12 13  1  0
 12 14  1  0
 14 15  2  0
 15 16  1  0
 16 17  2  0
 17 18  1  0
 10 19  1  0
 19 20  1  0
 20 21  1  0
 21 22  1  0
 22 23  1  0
 23 24  1  0
 24 25  1  0
 23  9  1  0
 17 11  1  0
 24 20  1  0
M  END
$$$$
