
     RDKit          3D

 23 25  0  0  0  0  0  0  0  0999 V2000
   29.7158   82.6555   53.3054 C   0  0  0  0  0  0  0  0  0  0  0  0
   30.9352   83.3151   52.6786 C   0  0  0  0  0  0  0  0  0  0  0  0
   31.1489   82.8297   51.2622 C   0  0  0  0  0  0  0  0  0  0  0  0
   29.9072   82.1007   50.8338 C   0  0  0  0  0  0  0  0  0  0  0  0
   30.0404   81.3163   49.5683 C   0  0  0  0  0  0  0  0  0  0  0  0
   31.3789   80.6330   49.4214 C   0  0  0  0  0  0  0  0  0  0  0  0
   32.0776   80.6172   50.7578 C   0  0  0  0  0  0  0  0  0  0  0  0
   32.3423   82.0016   51.1279 N   0  0  0  0  0  0  0  0  0  0  0  0
   33.6177   82.5386   51.3416 C   0  0  0  0  0  0  0  0  0  0  0  0
   33.6877   83.7698   51.6821 O   0  0  0  0  0  0  0  0  0  0  0  0
   34.9060   81.8358   51.2187 C   0  0  0  0  0  0  0  0  0  0  0  0
   35.9079   82.5937   50.4052 C   0  0  0  0  0  0  0  0  0  0  0  0
   37.1840   81.8372   50.2873 C   0  0  0  0  0  0  0  0  0  0  0  0
   37.7302   81.2350   51.5247 C   0  0  0  0  0  0  0  0  0  0  0  0
   36.9059   81.5176   52.6551 N   0  0  0  0  0  0  0  0  0  0  0  0
   37.5601   81.7887   53.9113 C   0  0  0  0  0  0  0  0  0  0  0  0
   36.9224   82.4082   54.7829 O   0  0  0  0  0  0  0  0  0  0  0  0
   38.9235   81.3756   54.2071 C   0  0  0  0  0  0  0  0  0  0  0  0
   39.4284   80.1279   54.4838 C   0  0  0  0  0  0  0  0  0  0  0  0
   40.7732   80.2617   54.6854 C   0  0  0  0  0  0  0  0  0  0  0  0
   41.0977   81.5309   54.5427 O   0  0  0  0  0  0  0  0  0  0  0  0
   40.0315   82.2356   54.2577 C   0  0  0  0  0  0  0  0  0  0  0  0
   35.4810   81.5085   52.5480 C   0  0  0  0  0  0  0  0  0  0  0  0
  1  2  1  0
  2  3  1  0
  3  4  1  0
  4  5  1  0
  5  6  1  0
  6  7  1  0
  7  8  1  0
  8  9  1  0
  9 10  2  0
  9 11  1  0
 11 12  1  0
 12 13  1  0
 13 14  1  0
 14 15  1  0
 15 16  1  0
 16 17  2  0
 16 18  1  0
 18 19  1  0
 19 20  2  0
 20 21  1  0
 21 22  1  0
 15 23  1  0
  8  3  1  0
 23 11  1  0
 22 18  2  0
M  END
$$$$
