
     RDKit          3D

 37 42  0  0  0  0  0  0  0  0999 V2000
   16.6027  100.9622   46.7718 C   0  0  0  0  0  0  0  0  0  0  0  0
   15.6663  100.6173   47.7802 O   0  0  0  0  0  0  0  0  0  0  0  0
   15.8538  100.9816   49.0936 N   0  0  0  0  0  0  0  0  0  0  0  0
   15.2743  100.4074   50.0846 C   0  0  0  0  0  0  0  0  0  0  0  0
   14.1488   99.4854   49.7984 C   0  0  0  0  0  0  0  0  0  0  0  0
   15.7154  100.6597   51.4517 C   0  0  0  0  0  0  0  0  0  0  0  0
   16.8535  101.4381   51.6760 C   0  0  0  0  0  0  0  0  0  0  0  0
   17.2610  101.6683   52.9699 C   0  0  0  0  0  0  0  0  0  0  0  0
   16.5083  101.1070   53.9863 C   0  0  0  0  0  0  0  0  0  0  0  0
   16.6111  101.1236   55.3122 N   0  0  0  0  0  0  0  0  0  0  0  0
   15.6235  100.4191   55.8243 N   0  0  0  0  0  0  0  0  0  0  0  0
   14.8595   99.9304   54.8471 C   0  0  0  0  0  0  0  0  0  0  0  0
   13.4171   98.9216   54.9816 S   0  0  0  0  0  0  0  0  0  0  0  0
   12.5615   99.0853   56.5316 C   0  0  0  0  0  0  0  0  0  0  0  0
   11.7101  100.1130   56.8572 C   0  0  0  0  0  0  0  0  0  0  0  0
   11.0719  100.1938   58.0909 C   0  0  0  0  0  0  0  0  0  0  0  0
   11.2708   99.2292   59.0553 C   0  0  0  0  0  0  0  0  0  0  0  0
   10.6705   99.2827   60.2552 N   0  0  0  0  0  0  0  0  0  0  0  0
   10.9144   98.3094   61.1434 C   0  0  0  0  0  0  0  0  0  0  0  0
   11.7340   97.2495   60.9318 C   0  0  0  0  0  0  0  0  0  0  0  0
   12.0000   96.2247   61.8699 N   0  0  0  0  0  0  0  0  0  0  0  0
   12.5164   94.9134   61.5258 C   0  0  0  0  0  0  0  0  0  0  0  0
   11.9164   93.9772   62.5867 C   0  0  0  0  0  0  0  0  0  0  0  0
   12.5317   94.2258   63.9466 C   0  0  0  0  0  0  0  0  0  0  0  0
   11.6225   93.9628   65.0254 N   0  0  0  0  0  0  0  0  0  0  0  0
   10.5698   93.0323   64.6541 C   0  0  0  0  0  0  0  0  0  0  0  0
   11.1406   91.6839   64.2616 C   0  0  0  0  0  0  0  0  0  0  0  0
   11.9742   91.0689   65.3341 C   0  0  0  0  0  0  0  0  0  0  0  0
   13.0291   92.0718   65.7635 C   0  0  0  0  0  0  0  0  0  0  0  0
   12.3322   93.3426   66.1248 C   0  0  0  0  0  0  0  0  0  0  0  0
   12.9093   95.6821   63.9751 C   0  0  0  0  0  0  0  0  0  0  0  0
   11.7661   96.4455   63.2757 C   0  0  0  0  0  0  0  0  0  0  0  0
   12.3574   97.1946   59.6844 C   0  0  0  0  0  0  0  0  0  0  0  0
   12.1217   98.1917   58.7443 C   0  0  0  0  0  0  0  0  0  0  0  0
   12.7529   98.1196   57.5123 C   0  0  0  0  0  0  0  0  0  0  0  0
   15.4125  100.3604   53.6966 N   0  0  0  0  0  0  0  0  0  0  0  0
   15.0192  100.1378   52.4565 N   0  0  0  0  0  0  0  0  0  0  0  0
  1  2  1  0
  2  3  1  0
  3  4  2  0
  4  5  1  0
  4  6  1  0
  6  7  1  0
  7  8  2  0
  8  9  1  0
  9 10  2  0
 10 11  1  0
 11 12  2  0
 12 13  1  0
 13 14  1  0
 14 15  2  0
 15 16  1  0
 16 17  2  0
 17 18  1  0
 18 19  2  0
 19 20  1  0
 20 21  1  0
 21 22  1  0
 22 23  1  0
 23 24  1  0
 24 25  1  0
 25 26  1  0
 26 27  1  0
 27 28  1  0
 28 29  1  0
 29 30  1  0
 24 31  1  0
 31 32  1  0
 20 33  2  0
 33 34  1  0
 34 35  2  0
 12 36  1  0
 36 37  1  0
 37  6  2  0
 36  9  1  0
 35 14  1  0
 34 17  1  0
 32 21  1  0
 30 25  1  0
M  END
$$$$
