
     RDKit          3D

 38 42  0  0  0  0  0  0  0  0999 V2000
   14.3860   90.0420   63.7280 N   0  0  0  0  0  0  0  0  0  0  0  0
   14.5404   91.1676   63.7099 C   0  0  0  0  0  0  0  0  0  0  0  0
   14.7399   92.6317   63.6804 C   0  0  2  0  0  0  0  0  0  0  0  0
   15.2172   93.0800   65.0327 C   0  0  0  0  0  0  0  0  0  0  0  0
   13.9558   93.4747   65.7767 C   0  0  0  0  0  0  0  0  0  0  0  0
   12.8195   93.0733   64.8516 C   0  0  0  0  0  0  0  0  0  0  0  0
   13.4313   93.2458   63.5686 N   0  0  0  0  0  0  0  0  0  0  0  0
   12.9002   93.8774   62.4312 C   0  0  0  0  0  0  0  0  0  0  0  0
   13.5903   93.8884   61.3518 O   0  0  0  0  0  0  0  0  0  0  0  0
   11.5766   94.5335   62.4138 C   0  0  2  0  0  0  0  0  0  0  0  0
   10.5703   93.6024   63.0201 C   0  0  0  0  0  0  0  0  0  0  0  0
   10.1539   92.5800   62.0814 N   0  0  0  0  0  0  0  0  0  0  0  0
    8.8636   92.1089   62.5413 C   0  0  0  0  0  0  0  0  0  0  0  0
    7.9857   93.2109   62.9862 C   0  0  0  0  0  0  0  0  0  0  0  0
    7.4923   93.1851   64.2672 C   0  0  0  0  0  0  0  0  0  0  0  0
    6.6614   94.1616   64.7855 C   0  0  0  0  0  0  0  0  0  0  0  0
    6.3079   95.2149   63.9797 C   0  0  0  0  0  0  0  0  0  0  0  0
    6.7971   95.2512   62.6924 C   0  0  0  0  0  0  0  0  0  0  0  0
    7.6283   94.2709   62.1797 C   0  0  0  0  0  0  0  0  0  0  0  0
    8.1150   94.4030   60.7789 C   0  0  1  0  0  0  0  0  0  0  0  0
    6.8359   94.3790   59.9203 C   0  0  0  0  0  0  0  0  0  0  0  0
    6.2846   95.7060   59.7926 N   0  0  0  0  0  0  0  0  0  0  0  0
    8.8104   95.6765   60.5097 C   0  0  0  0  0  0  0  0  0  0  0  0
   10.2145   95.8657   60.8142 C   0  0  2  0  0  0  0  0  0  0  0  0
   10.7929   96.7859   59.8454 N   0  0  0  0  0  0  0  0  0  0  0  0
   10.7413   98.1737   60.1143 C   0  0  0  0  0  0  0  0  0  0  0  0
   10.2894   98.6498   61.2199 O   0  0  0  0  0  0  0  0  0  0  0  0
   11.2041   99.1478   59.1346 C   0  0  0  0  0  0  0  0  0  0  0  0
   10.6966  100.4174   59.0433 C   0  0  0  0  0  0  0  0  0  0  0  0
   11.2027  101.2918   58.0764 C   0  0  0  0  0  0  0  0  0  0  0  0
   12.1930  100.9285   57.2085 C   0  0  0  0  0  0  0  0  0  0  0  0
   12.7051  101.7732   56.2516 C   0  0  0  0  0  0  0  0  0  0  0  0
   13.7056  101.3453   55.4069 C   0  0  0  0  0  0  0  0  0  0  0  0
   14.2325  100.0670   55.4818 C   0  0  0  0  0  0  0  0  0  0  0  0
   13.7035   99.2375   56.4486 C   0  0  0  0  0  0  0  0  0  0  0  0
   12.7073   99.6572   57.2922 C   0  0  0  0  0  0  0  0  0  0  0  0
   12.2152   98.8104   58.2313 C   0  0  0  0  0  0  0  0  0  0  0  0
   11.1389   94.7045   60.9391 C   0  0  0  0  0  0  0  0  0  0  0  0
  1  2  3  0
  3  2  1  1
  3  4  1  0
  4  5  1  0
  5  6  1  0
  6  7  1  0
  7  8  1  0
  8  9  2  0
 10  8  1  6
 10 11  1  0
 11 12  1  0
 12 13  1  0
 13 14  1  0
 14 15  2  0
 15 16  1  0
 16 17  2  0
 17 18  1  0
 18 19  2  0
 19 20  1  0
 20 21  1  6
 21 22  1  0
 20 23  1  0
 23 24  1  0
 24 25  1  6
 25 26  1  0
 26 27  2  0
 26 28  1  0
 28 29  2  0
 29 30  1  0
 30 31  2  0
 31 32  1  0
 32 33  2  0
 33 34  1  0
 34 35  2  0
 35 36  1  0
 36 37  2  0
 24 38  1  0
  7  3  1  0
 38 10  1  0
 19 14  1  0
 37 28  1  0
 36 31  1  0
M  END
$$$$
