
     RDKit          3D

 23 25  0  0  0  0  0  0  0  0999 V2000
   12.4159  101.0805   57.3358 N   0  0  0  0  0  0  0  0  0  0  0  0
   11.5965  100.5545   58.3858 C   0  0  0  0  0  0  0  0  0  0  0  0
   12.0491   99.2176   58.8602 C   0  0  0  0  0  0  0  0  0  0  0  0
   13.0181   98.5295   58.1820 C   0  0  0  0  0  0  0  0  0  0  0  0
   13.4277   97.3061   58.6218 C   0  0  0  0  0  0  0  0  0  0  0  0
   12.8947   96.7190   59.7471 C   0  0  0  0  0  0  0  0  0  0  0  0
   11.9037   97.4162   60.4459 C   0  0  0  0  0  0  0  0  0  0  0  0
   11.3445   96.8202   61.6110 N   0  0  0  0  0  0  0  0  0  0  0  0
   12.0060   95.7408   62.2562 C   0  0  0  0  0  0  0  0  0  0  0  0
   13.3062   95.4686   62.0788 N   0  0  0  0  0  0  0  0  0  0  0  0
   13.8847   94.4335   62.7143 C   0  0  0  0  0  0  0  0  0  0  0  0
   15.3269   94.1177   62.5284 C   0  0  0  0  0  0  0  0  0  0  0  0
   15.4270   93.3515   61.3780 F   0  0  0  0  0  0  0  0  0  0  0  0
   16.0644   95.2728   62.4335 F   0  0  0  0  0  0  0  0  0  0  0  0
   15.7533   93.4250   63.6389 F   0  0  0  0  0  0  0  0  0  0  0  0
   13.1325   93.6662   63.5399 N   0  0  0  0  0  0  0  0  0  0  0  0
   11.8315   93.9045   63.7439 C   0  0  0  0  0  0  0  0  0  0  0  0
   11.0585   93.1272   64.5835 C   0  0  0  0  0  0  0  0  0  0  0  0
    9.7173   93.4139   64.7618 C   0  0  0  0  0  0  0  0  0  0  0  0
    9.0965   94.4688   64.1235 C   0  0  0  0  0  0  0  0  0  0  0  0
    9.8671   95.2457   63.2850 C   0  0  0  0  0  0  0  0  0  0  0  0
   11.2194   94.9613   63.1016 C   0  0  0  0  0  0  0  0  0  0  0  0
   11.5013   98.6483   59.9903 C   0  0  0  0  0  0  0  0  0  0  0  0
  1  2  1  0
  2  3  1  0
  3  4  2  0
  4  5  1  0
  5  6  2  0
  6  7  1  0
  7  8  1  0
  8  9  1  0
  9 10  2  0
 10 11  1  0
 11 12  1  0
 12 13  1  0
 12 14  1  0
 12 15  1  0
 11 16  2  0
 16 17  1  0
 17 18  2  0
 18 19  1  0
 19 20  2  0
 20 21  1  0
 21 22  2  0
  7 23  2  0
 23  3  1  0
 22  9  1  0
 22 17  1  0
M  END
$$$$
