
     RDKit          3D

 28 31  0  0  0  0  0  0  0  0999 V2000
   11.3075   98.4783   59.4642 O   0  0  0  0  0  0  0  0  0  0  0  0
   12.3586   98.2644   58.7683 C   0  0  0  0  0  0  0  0  0  0  0  0
   13.0275   97.0914   59.0903 O   0  0  0  0  0  0  0  0  0  0  0  0
   13.2956   96.6958   60.3931 C   0  0  0  0  0  0  0  0  0  0  0  0
   12.1442   96.1122   61.1382 C   0  0  0  0  0  0  0  0  0  0  0  0
   12.6904   95.1606   62.1484 C   0  0  0  0  0  0  0  0  0  0  0  0
   12.1586   93.8990   62.3280 C   0  0  0  0  0  0  0  0  0  0  0  0
   12.6701   93.0245   63.2650 C   0  0  0  0  0  0  0  0  0  0  0  0
   13.7380   93.3725   64.0661 C   0  0  0  0  0  0  0  0  0  0  0  0
   14.2455   92.5031   64.9967 F   0  0  0  0  0  0  0  0  0  0  0  0
   14.2764   94.6310   63.8942 C   0  0  0  0  0  0  0  0  0  0  0  0
   13.7600   95.4998   62.9556 C   0  0  0  0  0  0  0  0  0  0  0  0
   12.7902   99.1479   57.7659 N   0  0  0  0  0  0  0  0  0  0  0  0
   14.1931   99.3330   57.5185 C   0  0  0  0  0  0  0  0  0  0  0  0
   14.5045   99.4673   56.0349 C   0  0  0  0  0  0  0  0  0  0  0  0
   13.7176  100.6219   55.3823 C   0  0  0  0  0  0  0  0  0  0  0  0
   13.2781  100.1628   54.1207 N   0  0  0  0  0  0  0  0  0  0  0  0
   13.6926  100.5942   52.9052 C   0  0  0  0  0  0  0  0  0  0  0  0
   13.1131  100.0404   51.7779 C   0  0  0  0  0  0  0  0  0  0  0  0
   12.1391   99.0709   51.8306 C   0  0  0  0  0  0  0  0  0  0  0  0
   11.7598   98.6703   53.0382 N   0  0  0  0  0  0  0  0  0  0  0  0
   12.3103   99.1978   54.1438 C   0  0  0  0  0  0  0  0  0  0  0  0
   11.8473   98.7116   55.2236 O   0  0  0  0  0  0  0  0  0  0  0  0
   13.6908  100.6768   50.5718 C   0  0  0  0  0  0  0  0  0  0  0  0
   15.0022  101.1660   51.0446 C   0  0  0  0  0  0  0  0  0  0  0  0
   14.7253  101.5656   52.5056 C   0  0  0  0  0  0  0  0  0  0  0  0
   12.7477  101.0661   56.3960 C   0  0  0  0  0  0  0  0  0  0  0  0
   11.8876   99.9125   56.9365 C   0  0  0  0  0  0  0  0  0  0  0  0
  1  2  2  0
  2  3  1  0
  3  4  1  0
  4  5  1  0
  5  6  1  0
  6  7  2  0
  7  8  1  0
  8  9  2  0
  9 10  1  0
  9 11  1  0
 11 12  2  0
  2 13  1  0
 13 14  1  0
 14 15  1  0
 15 16  1  0
 16 17  1  0
 17 18  1  0
 18 19  2  0
 19 20  1  0
 20 21  2  0
 21 22  1  0
 22 23  2  0
 19 24  1  0
 24 25  1  0
 25 26  1  0
 16 27  1  0
 27 28  1  0
 12  6  1  0
 28 13  1  0
 22 17  1  0
 26 18  1  0
M  END
$$$$
