
     RDKit          3D

 16 16  0  0  0  0  0  0  0  0999 V2000
   17.8421   45.3174   22.2324 C   0  0  0  0  0  0  0  0  0  0  0  0
   17.5296   45.9386   20.8865 C   0  0  0  0  0  0  0  0  0  0  0  0
   17.5923   47.3801   21.0800 N   0  0  0  0  0  0  0  0  0  0  0  0
   18.8632   47.8055   21.5900 C   0  0  0  0  0  0  0  0  0  0  0  0
   19.5113   48.8670   20.7277 C   0  0  0  0  0  0  0  0  0  0  0  0
   20.6298   49.3417   21.3941 O   0  0  0  0  0  0  0  0  0  0  0  0
   17.2340   47.9940   19.8326 C   0  0  0  0  0  0  0  0  0  0  0  0
   17.6870   47.1178   18.7039 C   0  0  0  0  0  0  0  0  0  0  0  0
   17.5865   47.8632   17.3700 C   0  0  0  0  0  0  0  0  0  0  0  0
   16.2172   48.5036   17.2367 C   0  0  0  0  0  0  0  0  0  0  0  0
   15.2622   48.0374   18.3079 C   0  0  0  0  0  0  0  0  0  0  0  0
   13.9122   48.6285   18.0737 C   0  0  0  0  0  0  0  0  0  0  0  0
   14.0811   50.1217   17.8042 C   0  0  0  0  0  0  0  0  0  0  0  0
   13.1517   48.0386   16.9324 C   0  0  0  0  0  0  0  0  0  0  0  0
   13.0708   48.5601   19.3544 C   0  0  0  0  0  0  0  0  0  0  0  0
   15.7674   48.3500   19.7035 C   0  0  0  0  0  0  0  0  0  0  0  0
  1  2  1  0
  2  3  1  0
  3  4  1  0
  4  5  1  0
  5  6  1  0
  3  7  1  0
  7  8  1  0
  8  9  1  0
  9 10  1  0
 10 11  1  0
 11 12  1  0
 12 13  1  0
 12 14  1  0
 12 15  1  0
 11 16  1  0
 16  7  1  0
M  END
$$$$
