
     RDKit          3D

 15 17  0  0  0  0  0  0  0  0999 V2000
   16.9498  101.0490   52.2740 N   0  0  0  0  0  0  0  0  0  0  0  0
   15.9540  100.8631   53.2856 C   0  0  0  0  0  0  0  0  0  0  0  0
   16.1619  101.3674   54.5535 C   0  0  0  0  0  0  0  0  0  0  0  0
   15.2090  101.1941   55.5363 C   0  0  0  0  0  0  0  0  0  0  0  0
   14.0518  100.5205   55.2579 C   0  0  0  0  0  0  0  0  0  0  0  0
   13.8562  100.0169   53.9726 C   0  0  0  0  0  0  0  0  0  0  0  0
   14.8151  100.2074   53.0349 N   0  0  0  0  0  0  0  0  0  0  0  0
   12.6588   99.4167   53.9926 N   0  0  0  0  0  0  0  0  0  0  0  0
   12.0987   99.5244   55.2362 C   0  0  0  0  0  0  0  0  0  0  0  0
   10.9153   99.0938   55.7724 C   0  0  0  0  0  0  0  0  0  0  0  0
   10.5920   99.3444   57.0889 C   0  0  0  0  0  0  0  0  0  0  0  0
   11.4581  100.0381   57.8991 C   0  0  0  0  0  0  0  0  0  0  0  0
   11.0422  100.3458   59.5462 Cl  0  0  0  0  0  0  0  0  0  0  0  0
   12.6322  100.4661   57.3696 C   0  0  0  0  0  0  0  0  0  0  0  0
   12.9738  100.2198   56.0374 C   0  0  0  0  0  0  0  0  0  0  0  0
  1  2  1  0
  2  3  2  0
  3  4  1  0
  4  5  2  0
  5  6  1  0
  6  7  2  0
  6  8  1  0
  8  9  1  0
  9 10  2  0
 10 11  1  0
 11 12  2  0
 12 13  1  0
 12 14  1  0
 14 15  2  0
  7  2  1  0
 15  9  1  0
 15  5  1  0
M  END
$$$$
