
     RDKit          3D

 22 24  0  0  0  0  0  0  0  0999 V2000
   10.2842  101.6309   58.8057 C   0  0  0  0  0  0  0  0  0  0  0  0
   11.0016  100.3789   58.5322 N   0  0  0  0  0  0  0  0  0  0  0  0
   10.6269   99.2373   59.2768 C   0  0  0  0  0  0  0  0  0  0  0  0
    9.4289   99.0735   59.6960 O   0  0  0  0  0  0  0  0  0  0  0  0
   11.6218   98.1699   59.6059 C   0  0  0  0  0  0  0  0  0  0  0  0
   10.9588   96.9550   60.1592 C   0  0  0  0  0  0  0  0  0  0  0  0
   11.9759   96.1256   60.8382 C   0  0  0  0  0  0  0  0  0  0  0  0
   13.1384   96.0653   60.3776 O   0  0  0  0  0  0  0  0  0  0  0  0
   11.6808   95.3826   62.0117 N   0  0  0  0  0  0  0  0  0  0  0  0
   12.5081   95.5222   63.1992 C   0  0  0  0  0  0  0  0  0  0  0  0
   13.0322   94.1713   63.5674 C   0  0  0  0  0  0  0  0  0  0  0  0
   12.4534   93.2331   64.3975 C   0  0  0  0  0  0  0  0  0  0  0  0
   13.3108   92.1311   64.4360 C   0  0  0  0  0  0  0  0  0  0  0  0
   14.3637   92.4831   63.6153 C   0  0  0  0  0  0  0  0  0  0  0  0
   14.1775   93.6839   63.1177 O   0  0  0  0  0  0  0  0  0  0  0  0
   12.4534   97.6894   58.0419 S   0  0  0  0  0  0  0  0  0  0  0  0
   12.7597   99.2655   57.2073 C   0  0  0  0  0  0  0  0  0  0  0  0
   13.7196   99.2899   56.2682 N   0  0  0  0  0  0  0  0  0  0  0  0
   14.0368  100.4003   55.5854 C   0  0  0  0  0  0  0  0  0  0  0  0
   13.3322  101.5462   55.8817 C   0  0  0  0  0  0  0  0  0  0  0  0
   12.3434  101.5443   56.8411 C   0  0  0  0  0  0  0  0  0  0  0  0
   12.0200  100.3768   57.5491 C   0  0  0  0  0  0  0  0  0  0  0  0
  1  2  1  0
  2  3  1  0
  3  4  2  0
  3  5  1  0
  5  6  1  0
  6  7  1  0
  7  8  2  0
  7  9  1  0
  9 10  1  0
 10 11  1  0
 11 12  2  0
 12 13  1  0
 13 14  2  0
 14 15  1  0
  5 16  1  0
 16 17  1  0
 17 18  2  0
 18 19  1  0
 19 20  2  0
 20 21  1  0
 21 22  2  0
 22  2  1  0
 15 11  1  0
 22 17  1  0
M  END
$$$$
