
     RDKit          3D

 29 31  0  0  0  0  0  0  0  0999 V2000
   13.0755   48.9869   16.1951 C   0  0  0  0  0  0  0  0  0  0  0  0
   13.6555   49.1827   17.5692 C   0  0  0  0  0  0  0  0  0  0  0  0
   12.5213   49.4271   18.5385 C   0  0  0  0  0  0  0  0  0  0  0  0
   14.3908   47.9358   17.9808 C   0  0  0  0  0  0  0  0  0  0  0  0
   14.4847   50.3233   17.5499 O   0  0  0  0  0  0  0  0  0  0  0  0
   15.6907   50.3656   16.8538 C   0  0  0  0  0  0  0  0  0  0  0  0
   16.1144   49.2529   16.4333 O   0  0  0  0  0  0  0  0  0  0  0  0
   16.4075   51.5526   16.6215 N   0  0  0  0  0  0  0  0  0  0  0  0
   17.7562   51.5566   16.0080 C   0  0  1  0  0  0  0  0  0  0  0  0
   18.0050   52.9236   15.4085 C   0  0  0  0  0  0  0  0  0  0  0  0
   17.4768   53.0792   14.0467 C   0  0  0  0  0  0  0  0  0  0  0  0
   17.9190   52.4957   12.8528 C   0  0  0  0  0  0  0  0  0  0  0  0
   17.1545   52.9323   11.8344 N   0  0  0  0  0  0  0  0  0  0  0  0
   16.2215   53.7833   12.3053 C   0  0  0  0  0  0  0  0  0  0  0  0
   15.2109   54.4952   11.6834 C   0  0  0  0  0  0  0  0  0  0  0  0
   14.3841   55.3088   12.4204 C   0  0  0  0  0  0  0  0  0  0  0  0
   14.5565   55.4208   13.7839 C   0  0  0  0  0  0  0  0  0  0  0  0
   15.5705   54.7012   14.3791 C   0  0  0  0  0  0  0  0  0  0  0  0
   16.4151   53.8776   13.6674 C   0  0  0  0  0  0  0  0  0  0  0  0
   18.7521   51.1376   17.0057 C   0  0  0  0  0  0  0  0  0  0  0  0
   18.5587   51.4243   18.2448 O   0  0  0  0  0  0  0  0  0  0  0  0
   19.9464   50.4237   16.7513 N   0  0  0  0  0  0  0  0  0  0  0  0
   20.9247   50.1670   17.8239 C   0  0  1  0  0  0  0  0  0  0  0  0
   20.8713   48.7126   18.1479 C   0  0  0  0  0  0  0  0  0  0  0  0
   22.2420   48.2521   18.5954 C   0  0  0  0  0  0  0  0  0  0  0  0
   23.1739   48.3660   17.3993 C   0  0  0  0  0  0  0  0  0  0  0  0
   23.3142   49.7729   17.0713 N   0  0  0  0  0  0  0  0  0  0  0  0
   22.2632   50.6439   17.4497 C   0  0  0  0  0  0  0  0  0  0  0  0
   22.4924   51.8753   17.4638 O   0  0  0  0  0  0  0  0  0  0  0  0
  1  2  1  0
  2  3  1  0
  2  4  1  0
  2  5  1  0
  5  6  1  0
  6  7  2  0
  6  8  1  0
  8  9  1  0
  9 10  1  1
 10 11  1  0
 11 12  2  0
 12 13  1  0
 13 14  1  0
 14 15  2  0
 15 16  1  0
 16 17  2  0
 17 18  1  0
 18 19  2  0
  9 20  1  0
 20 21  2  0
 20 22  1  0
 23 22  1  6
 23 24  1  0
 24 25  1  0
 25 26  1  0
 26 27  1  0
 27 28  1  0
 28 29  2  0
 19 11  1  0
 28 23  1  0
 19 14  1  0
M  END
$$$$
