
     RDKit          3D

 36 39  0  0  0  0  0  0  0  0999 V2000
   16.6551   98.7508   49.2798 C   0  0  0  0  0  0  0  0  0  0  0  0
   15.9880  100.0141   49.4892 N   0  0  0  0  0  0  0  0  0  0  0  0
   14.5760   99.8597   49.1861 C   0  0  0  0  0  0  0  0  0  0  0  0
   14.0546   98.7667   50.0952 C   0  0  0  0  0  0  0  0  0  0  0  0
   14.1256   99.1469   51.4889 N   0  0  0  0  0  0  0  0  0  0  0  0
   13.8486   97.9753   52.2918 C   0  0  0  0  0  0  0  0  0  0  0  0
   13.7330   98.3118   53.7694 C   0  0  0  0  0  0  0  0  0  0  0  0
   12.4070   98.9906   54.0760 C   0  0  0  0  0  0  0  0  0  0  0  0
   12.3880   99.2929   55.4915 N   0  0  0  0  0  0  0  0  0  0  0  0
   12.1615  100.5586   56.0620 C   0  0  0  0  0  0  0  0  0  0  0  0
   12.5802  101.5565   55.4141 O   0  0  0  0  0  0  0  0  0  0  0  0
   11.4903  100.8003   57.3228 C   0  0  0  0  0  0  0  0  0  0  0  0
   11.1622  102.0895   57.6683 C   0  0  0  0  0  0  0  0  0  0  0  0
   10.5135  102.3739   58.8745 C   0  0  0  0  0  0  0  0  0  0  0  0
   10.2225  101.3108   59.6901 C   0  0  0  0  0  0  0  0  0  0  0  0
   10.5231   99.9980   59.4038 C   0  0  0  0  0  0  0  0  0  0  0  0
   10.1792   98.9327   60.3223 C   0  0  0  0  0  0  0  0  0  0  0  0
   10.1069   99.2113   61.5452 O   0  0  0  0  0  0  0  0  0  0  0  0
    9.9122   97.5900   59.9831 N   0  0  0  0  0  0  0  0  0  0  0  0
    9.8784   96.4978   60.8810 C   0  0  0  0  0  0  0  0  0  0  0  0
   11.1651   95.8106   61.1615 C   0  0  0  0  0  0  0  0  0  0  0  0
   11.6754   96.3366   62.3497 O   0  0  0  0  0  0  0  0  0  0  0  0
   10.9371   94.3368   61.4018 C   0  0  0  0  0  0  0  0  0  0  0  0
   11.9494   93.6956   62.1086 N   0  0  0  0  0  0  0  0  0  0  0  0
   11.6945   93.0830   63.3462 C   0  0  0  0  0  0  0  0  0  0  0  0
   12.8054   92.1767   63.8257 C   0  0  0  0  0  0  0  0  0  0  0  0
   14.1214   92.8888   63.7932 C   0  0  0  0  0  0  0  0  0  0  0  0
   15.0363   92.6576   64.7708 C   0  0  0  0  0  0  0  0  0  0  0  0
   16.2326   93.3446   64.6952 C   0  0  0  0  0  0  0  0  0  0  0  0
   16.4612   94.2244   63.6563 C   0  0  0  0  0  0  0  0  0  0  0  0
   15.5014   94.4420   62.6646 C   0  0  0  0  0  0  0  0  0  0  0  0
   14.3111   93.7557   62.7438 C   0  0  0  0  0  0  0  0  0  0  0  0
   13.2861   93.9472   61.7399 C   0  0  0  0  0  0  0  0  0  0  0  0
   11.1727   99.7758   58.1822 C   0  0  0  0  0  0  0  0  0  0  0  0
   15.4460   99.6056   51.8654 C   0  0  0  0  0  0  0  0  0  0  0  0
   16.0925  100.4766   50.8456 C   0  0  0  0  0  0  0  0  0  0  0  0
  1  2  1  0
  2  3  1  0
  3  4  1  0
  4  5  1  0
  5  6  1  0
  6  7  1  0
  7  8  1  0
  8  9  1  0
  9 10  1  0
 10 11  2  0
 10 12  1  0
 12 13  2  0
 13 14  1  0
 14 15  2  0
 15 16  1  0
 16 17  1  0
 17 18  2  0
 17 19  1  0
 19 20  1  0
 20 21  1  0
 21 22  1  0
 21 23  1  0
 23 24  1  0
 24 25  1  0
 25 26  1  0
 26 27  1  0
 27 28  2  0
 28 29  1  0
 29 30  2  0
 30 31  1  0
 31 32  2  0
 32 33  1  0
 16 34  2  0
  5 35  1  0
 35 36  1  0
 36  2  1  0
 34 12  1  0
 33 24  1  0
 32 27  1  0
M  END
$$$$
