
     RDKit          3D

 18 18  0  0  0  0  0  0  0  0999 V2000
    9.6166   93.3994   63.8432 C   0  0  0  0  0  0  0  0  0  0  0  0
   10.9236   93.9721   63.3827 C   0  0  0  0  0  0  0  0  0  0  0  0
   12.1261   93.5293   63.8865 C   0  0  0  0  0  0  0  0  0  0  0  0
   13.3055   94.1071   63.4127 C   0  0  0  0  0  0  0  0  0  0  0  0
   14.4977   93.6510   63.9285 O   0  0  0  0  0  0  0  0  0  0  0  0
   15.5483   93.0542   63.2197 C   0  0  0  0  0  0  0  0  0  0  0  0
   16.6491   92.9614   64.0701 F   0  0  0  0  0  0  0  0  0  0  0  0
   15.2172   91.7681   62.7956 F   0  0  0  0  0  0  0  0  0  0  0  0
   13.2258   95.0924   62.4650 C   0  0  0  0  0  0  0  0  0  0  0  0
   12.0151   95.5257   61.9698 C   0  0  0  0  0  0  0  0  0  0  0  0
   11.9531   96.5873   60.9503 C   0  0  0  0  0  0  0  0  0  0  0  0
   13.0232   96.9364   60.3910 O   0  0  0  0  0  0  0  0  0  0  0  0
   10.7452   97.2120   60.5913 N   0  0  0  0  0  0  0  0  0  0  0  0
   10.7551   98.2931   59.6465 C   0  0  0  0  0  0  0  0  0  0  0  0
   10.6113   97.8080   58.2543 C   0  0  0  0  0  0  0  0  0  0  0  0
   10.5637   96.4350   57.9677 N   0  0  0  0  0  0  0  0  0  0  0  0
   10.5320   98.6475   57.3270 O   0  0  0  0  0  0  0  0  0  0  0  0
   10.9054   94.9436   62.4524 N   0  0  0  0  0  0  0  0  0  0  0  0
  1  2  1  0
  2  3  2  0
  3  4  1  0
  4  5  1  0
  5  6  1  0
  6  7  1  0
  6  8  1  0
  4  9  2  0
  9 10  1  0
 10 11  1  0
 11 12  2  0
 11 13  1  0
 13 14  1  0
 14 15  1  0
 15 16  1  0
 15 17  2  0
 10 18  2  0
 18  2  1  0
M  END
$$$$
