
     RDKit          3D

 39 44  0  0  0  0  0  0  0  0999 V2000
   42.5996   79.0984   51.2123 N   0  0  0  0  0  0  0  0  0  0  0  0
   42.1596   78.1194   52.1322 C   0  0  0  0  0  0  0  0  0  0  0  0
   42.9364   77.8308   53.0773 O   0  0  0  0  0  0  0  0  0  0  0  0
   40.8580   77.4103   52.0674 C   0  0  2  0  0  0  0  0  0  0  0  0
   41.1350   75.9279   51.8844 C   0  0  0  0  0  0  0  0  0  0  0  0
   41.2832   75.7468   50.3996 C   0  0  0  0  0  0  0  0  0  0  0  0
   40.7764   76.9988   49.7486 C   0  0  0  0  0  0  0  0  0  0  0  0
   40.0653   77.7437   50.8478 C   0  0  0  0  0  0  0  0  0  0  0  0
   40.0188   79.1751   50.5800 N   0  0  0  0  0  0  0  0  0  0  0  0
   38.9724   80.0036   50.9890 C   0  0  0  0  0  0  0  0  0  0  0  0
   38.3028   79.5451   51.9864 O   0  0  0  0  0  0  0  0  0  0  0  0
   38.5551   81.2527   50.4714 N   0  0  0  0  0  0  0  0  0  0  0  0
   39.1494   81.7676   49.2668 C   0  0  0  0  0  0  0  0  0  0  0  0
   38.5975   83.0922   49.0628 C   0  0  0  0  0  0  0  0  0  0  0  0
   38.6863   84.2131   48.2129 C   0  0  0  0  0  0  0  0  0  0  0  0
   39.5452   84.2958   47.0922 N   0  0  0  0  0  0  0  0  0  0  0  0
   39.3662   83.5294   45.9177 C   0  0  0  0  0  0  0  0  0  0  0  0
   38.4134   82.7106   45.9098 O   0  0  0  0  0  0  0  0  0  0  0  0
   40.2702   83.6870   44.7397 C   0  0  0  0  0  0  0  0  0  0  0  0
   41.7173   84.0409   45.0204 C   0  0  0  0  0  0  0  0  0  0  0  0
   41.3555   82.6358   44.6510 C   0  0  0  0  0  0  0  0  0  0  0  0
   37.8335   85.0932   48.6910 N   0  0  0  0  0  0  0  0  0  0  0  0
   37.2197   84.6266   49.7608 N   0  0  0  0  0  0  0  0  0  0  0  0
   37.6798   83.3870   50.0064 C   0  0  0  0  0  0  0  0  0  0  0  0
   37.5553   82.2102   50.9521 C   0  0  0  0  0  0  0  0  0  0  0  0
   36.2025   81.6573   50.8746 C   0  0  0  0  0  0  0  0  0  0  0  0
   35.2878   81.9064   52.0207 C   0  0  0  0  0  0  0  0  0  0  0  0
   33.8689   81.3861   51.6985 C   0  0  0  0  0  0  0  0  0  0  0  0
   32.9713   81.7298   52.8680 C   0  0  0  0  0  0  0  0  0  0  0  0
   31.5566   81.5650   52.4566 C   0  0  0  0  0  0  0  0  0  0  0  0
   30.6695   82.5811   52.7316 C   0  0  0  0  0  0  0  0  0  0  0  0
   29.3463   82.4404   52.3543 C   0  0  0  0  0  0  0  0  0  0  0  0
   28.8916   81.3030   51.7070 C   0  0  0  0  0  0  0  0  0  0  0  0
   29.7802   80.2861   51.4319 C   0  0  0  0  0  0  0  0  0  0  0  0
   31.1120   80.4354   51.8153 C   0  0  0  0  0  0  0  0  0  0  0  0
   38.0346   82.6384   52.2857 C   0  0  0  0  0  0  0  0  0  0  0  0
   39.0482   83.7189   52.3998 C   0  0  0  0  0  0  0  0  0  0  0  0
   39.9615   83.5126   53.6262 C   0  0  0  0  0  0  0  0  0  0  0  0
   39.0244   84.6217   53.6301 C   0  0  0  0  0  0  0  0  0  0  0  0
  1  2  1  0
  2  3  2  0
  4  2  1  6
  4  5  1  0
  5  6  1  0
  6  7  1  0
  7  8  1  0
  8  9  1  0
  9 10  1  0
 10 11  2  0
 10 12  1  0
 12 13  1  0
 13 14  1  0
 14 15  1  0
 15 16  1  0
 16 17  1  0
 17 18  2  0
 17 19  1  0
 19 20  1  0
 20 21  1  0
 15 22  2  0
 22 23  1  0
 23 24  1  0
 24 25  1  0
 25 26  1  0
 26 27  1  0
 27 28  1  0
 28 29  1  0
 29 30  1  0
 30 31  2  0
 31 32  1  0
 32 33  2  0
 33 34  1  0
 34 35  2  0
 25 36  1  0
 36 37  1  0
 37 38  1  0
 38 39  1  0
  8  4  1  0
 25 12  1  0
 35 30  1  0
 39 37  1  0
 24 14  2  0
 21 19  1  0
M  END
$$$$
