
     RDKit          3D

 21 22  0  0  0  0  0  0  0  0999 V2000
   29.6057   83.4017   52.1111 C   0  0  0  0  0  0  0  0  0  0  0  0
   30.3096   82.5441   51.1189 C   0  0  0  0  0  0  0  0  0  0  0  0
   29.6047   81.6120   50.3831 C   0  0  0  0  0  0  0  0  0  0  0  0
   30.3003   80.8418   49.4773 C   0  0  0  0  0  0  0  0  0  0  0  0
   31.6718   80.9771   49.2883 C   0  0  0  0  0  0  0  0  0  0  0  0
   32.3867   81.9002   50.0132 C   0  0  0  0  0  0  0  0  0  0  0  0
   33.8197   82.1134   49.8851 C   0  0  0  0  0  0  0  0  0  0  0  0
   34.4564   81.5908   48.9118 O   0  0  0  0  0  0  0  0  0  0  0  0
   34.5655   82.8879   50.8035 N   0  0  0  0  0  0  0  0  0  0  0  0
   36.0210   82.9850   50.7313 C   0  0  0  0  0  0  0  0  0  0  0  0
   36.5872   82.2587   51.8823 C   0  0  0  0  0  0  0  0  0  0  0  0
   35.8296   81.7173   52.7107 O   0  0  0  0  0  0  0  0  0  0  0  0
   37.9927   82.1843   52.0339 N   0  0  0  0  0  0  0  0  0  0  0  0
   38.5991   81.5926   53.1848 C   0  0  0  0  0  0  0  0  0  0  0  0
   40.1007   81.6036   53.0700 C   0  0  0  0  0  0  0  0  0  0  0  0
   40.6397   80.9352   54.3242 C   0  0  0  0  0  0  0  0  0  0  0  0
   40.8944   82.0732   55.3007 C   0  0  0  0  0  0  0  0  0  0  0  0
   41.3230   83.1893   54.4057 C   0  0  0  0  0  0  0  0  0  0  0  0
   40.5789   83.0369   53.1113 C   0  0  0  0  0  0  0  0  0  0  0  0
   41.4120   83.3163   52.0173 O   0  0  0  0  0  0  0  0  0  0  0  0
   31.6681   82.6656   50.9197 C   0  0  0  0  0  0  0  0  0  0  0  0
  1  2  1  0
  2  3  2  0
  3  4  1  0
  4  5  2  0
  5  6  1  0
  6  7  1  0
  7  8  2  0
  7  9  1  0
  9 10  1  0
 10 11  1  0
 11 12  2  0
 11 13  1  0
 13 14  1  0
 14 15  1  0
 15 16  1  0
 16 17  1  0
 17 18  1  0
 18 19  1  0
 19 20  1  0
  6 21  2  0
 21  2  1  0
 19 15  1  0
M  END
$$$$
