
     RDKit          3D

 35 38  0  0  0  0  0  0  0  0999 V2000
   -6.9038   69.4166   33.2639 C   0  0  0  0  0  0  0  0  0  0  0  0
   -7.0577   68.7953   31.8600 C   0  0  0  0  0  0  0  0  0  0  0  0
   -6.6120   67.4300   31.8402 N   0  0  0  0  0  0  0  0  0  0  0  0
   -7.5030   66.4282   31.7939 C   0  0  0  0  0  0  0  0  0  0  0  0
   -7.1894   65.0873   31.7460 C   0  0  0  0  0  0  0  0  0  0  0  0
   -8.2336   64.0925   31.8081 C   0  0  0  0  0  0  0  0  0  0  0  0
   -8.7974   63.8741   32.9090 O   0  0  0  0  0  0  0  0  0  0  0  0
   -8.6589   63.3551   30.6640 N   0  0  0  0  0  0  0  0  0  0  0  0
  -10.0611   63.1683   30.3093 C   0  0  0  0  0  0  0  0  0  0  0  0
  -10.2726   61.6759   30.2327 C   0  0  0  0  0  0  0  0  0  0  0  0
  -10.8133   61.1732   29.0500 C   0  0  0  0  0  0  0  0  0  0  0  0
  -10.9962   59.8275   28.9039 C   0  0  0  0  0  0  0  0  0  0  0  0
  -10.6374   59.0170   29.9325 C   0  0  0  0  0  0  0  0  0  0  0  0
  -10.0870   59.4722   31.1407 C   0  0  0  0  0  0  0  0  0  0  0  0
   -9.7388   58.4525   32.1120 C   0  0  0  0  0  0  0  0  0  0  0  0
   -8.7734   57.5059   31.7920 C   0  0  0  0  0  0  0  0  0  0  0  0
   -8.3034   56.5893   32.7266 C   0  0  0  0  0  0  0  0  0  0  0  0
   -8.7713   56.5793   34.0040 C   0  0  0  0  0  0  0  0  0  0  0  0
   -9.7352   57.5046   34.3591 C   0  0  0  0  0  0  0  0  0  0  0  0
  -10.2178   57.5070   35.6641 O   0  0  0  0  0  0  0  0  0  0  0  0
  -10.4170   56.2967   36.3742 C   0  0  0  0  0  0  0  0  0  0  0  0
  -10.2101   58.4243   33.4211 C   0  0  0  0  0  0  0  0  0  0  0  0
   -9.9151   60.8298   31.2623 C   0  0  0  0  0  0  0  0  0  0  0  0
   -5.8536   64.7696   31.7433 C   0  0  0  0  0  0  0  0  0  0  0  0
   -5.4150   63.4504   31.7041 C   0  0  0  0  0  0  0  0  0  0  0  0
   -4.0840   63.1413   31.7238 C   0  0  0  0  0  0  0  0  0  0  0  0
   -3.5926   61.8622   31.6785 O   0  0  0  0  0  0  0  0  0  0  0  0
   -4.4068   60.7477   31.2533 C   0  0  0  0  0  0  0  0  0  0  0  0
   -3.1643   64.1801   31.7807 C   0  0  0  0  0  0  0  0  0  0  0  0
   -1.8133   63.9065   31.7981 O   0  0  0  0  0  0  0  0  0  0  0  0
   -0.9184   64.6723   32.5499 C   0  0  0  0  0  0  0  0  0  0  0  0
   -3.5821   65.4798   31.8145 C   0  0  0  0  0  0  0  0  0  0  0  0
   -4.9278   65.8129   31.7935 C   0  0  0  0  0  0  0  0  0  0  0  0
   -5.3187   67.1170   31.8407 C   0  0  0  0  0  0  0  0  0  0  0  0
   -4.4735   68.0686   31.8879 O   0  0  0  0  0  0  0  0  0  0  0  0
  1  2  1  0
  2  3  1  0
  3  4  1  0
  4  5  2  0
  5  6  1  0
  6  7  2  0
  6  8  1  0
  8  9  1  0
  9 10  1  0
 10 11  2  0
 11 12  1  0
 12 13  2  0
 13 14  1  0
 14 15  1  0
 15 16  2  0
 16 17  1  0
 17 18  2  0
 18 19  1  0
 19 20  1  0
 20 21  1  0
 19 22  2  0
 14 23  2  0
  5 24  1  0
 24 25  2  0
 25 26  1  0
 26 27  1  0
 27 28  1  0
 26 29  2  0
 29 30  1  0
 30 31  1  0
 29 32  1  0
 32 33  2  0
 33 34  1  0
 34 35  2  0
 34  3  1  0
 23 10  1  0
 33 24  1  0
 22 15  1  0
M  END
$$$$
