
     RDKit          3D

 22 25  0  0  0  0  0  0  0  0999 V2000
   11.9638   60.0286   11.7948 C   0  0  0  0  0  0  0  0  0  0  0  0
   13.2938   59.9874   12.1387 C   0  0  0  0  0  0  0  0  0  0  0  0
   13.9858   58.8757   12.2021 N   0  0  0  0  0  0  0  0  0  0  0  0
   13.3820   57.6709   11.9161 C   0  0  0  0  0  0  0  0  0  0  0  0
   14.1896   56.5943   12.0135 O   0  0  0  0  0  0  0  0  0  0  0  0
   15.0252   56.2610   13.0195 C   0  0  0  0  0  0  0  0  0  0  0  0
   15.1252   54.8810   13.3505 C   0  0  0  0  0  0  0  0  0  0  0  0
   15.9531   54.4870   14.3573 C   0  0  0  0  0  0  0  0  0  0  0  0
   16.0956   53.0769   14.7416 C   0  0  0  0  0  0  0  0  0  0  0  0
   16.9588   52.1965   14.1412 C   0  0  0  0  0  0  0  0  0  0  0  0
   17.0275   50.8664   14.5750 C   0  0  0  0  0  0  0  0  0  0  0  0
   16.2522   50.3808   15.6020 C   0  0  0  0  0  0  0  0  0  0  0  0
   15.3864   51.2641   16.2044 C   0  0  0  0  0  0  0  0  0  0  0  0
   15.3172   52.5736   15.7789 C   0  0  0  0  0  0  0  0  0  0  0  0
   14.6845   50.4992   17.2636 C   0  0  0  0  0  0  0  0  0  0  0  0
   14.8069   49.0732   16.7761 C   0  0  0  0  0  0  0  0  0  0  0  0
   16.1307   49.1227   16.2141 O   0  0  0  0  0  0  0  0  0  0  0  0
   16.6527   55.4489   15.0047 N   0  0  0  0  0  0  0  0  0  0  0  0
   16.5485   56.7486   14.6816 C   0  0  0  0  0  0  0  0  0  0  0  0
   15.7437   57.1363   13.7022 N   0  0  0  0  0  0  0  0  0  0  0  0
   12.0552   57.7091   11.5726 C   0  0  0  0  0  0  0  0  0  0  0  0
   11.3624   58.8748   11.5148 N   0  0  0  0  0  0  0  0  0  0  0  0
  1  2  2  0
  2  3  1  0
  3  4  2  0
  4  5  1  0
  5  6  1  0
  6  7  2  0
  7  8  1  0
  8  9  1  0
  9 10  2  0
 10 11  1  0
 11 12  2  0
 12 13  1  0
 13 14  2  0
 13 15  1  0
 15 16  1  0
 16 17  1  0
  8 18  2  0
 18 19  1  0
 19 20  2  0
  4 21  1  0
 21 22  2  0
 22  1  1  0
 20  6  1  0
 14  9  1  0
 17 12  1  0
M  END
$$$$
