
     RDKit          3D

 24 26  0  0  0  0  0  0  0  0999 V2000
   18.8348   54.0482   11.4060 C   0  0  0  0  0  0  0  0  0  0  0  0
   17.5414   54.3910   12.0157 N   0  0  0  0  0  0  0  0  0  0  0  0
   17.0213   53.5425   12.8699 N   0  0  0  0  0  0  0  0  0  0  0  0
   15.8313   53.7278   13.5111 C   0  0  0  0  0  0  0  0  0  0  0  0
   15.3210   52.7440   14.4429 C   0  0  0  0  0  0  0  0  0  0  0  0
   14.3017   52.7669   15.1300 O   0  0  0  0  0  0  0  0  0  0  0  0
   16.1227   51.5520   14.5959 N   0  0  0  0  0  0  0  0  0  0  0  0
   15.5706   50.3657   15.1756 C   0  0  0  0  0  0  0  0  0  0  0  0
   15.7757   50.2683   16.6269 C   0  0  0  0  0  0  0  0  0  0  0  0
   16.0849   51.2966   17.2766 O   0  0  0  0  0  0  0  0  0  0  0  0
   15.6337   49.0408   17.3180 N   0  0  0  0  0  0  0  0  0  0  0  0
   15.7620   48.9464   18.7613 C   0  0  0  0  0  0  0  0  0  0  0  0
   14.3610   49.0324   19.3325 C   0  0  0  0  0  0  0  0  0  0  0  0
   13.7621   47.6841   19.0751 C   0  0  0  0  0  0  0  0  0  0  0  0
   14.9255   46.7438   19.3013 C   0  0  0  0  0  0  0  0  0  0  0  0
   16.1837   47.5651   19.1609 C   0  0  0  0  0  0  0  0  0  0  0  0
   15.1860   54.9063   13.1933 C   0  0  0  0  0  0  0  0  0  0  0  0
   13.9776   55.2124   13.7720 C   0  0  0  0  0  0  0  0  0  0  0  0
   13.3332   56.3967   13.4503 C   0  0  0  0  0  0  0  0  0  0  0  0
   13.8527   57.3098   12.5566 C   0  0  0  0  0  0  0  0  0  0  0  0
   15.0689   57.0079   11.9703 C   0  0  0  0  0  0  0  0  0  0  0  0
   15.7023   55.8363   12.2913 C   0  0  0  0  0  0  0  0  0  0  0  0
   16.9137   55.5363   11.7072 C   0  0  0  0  0  0  0  0  0  0  0  0
   17.4546   56.3156   10.8826 O   0  0  0  0  0  0  0  0  0  0  0  0
  1  2  1  0
  2  3  1  0
  3  4  2  0
  4  5  1  0
  5  6  2  0
  5  7  1  0
  7  8  1  0
  8  9  1  0
  9 10  2  0
  9 11  1  0
 11 12  1  0
 12 13  1  0
 13 14  1  0
 14 15  1  0
 15 16  1  0
  4 17  1  0
 17 18  2  0
 18 19  1  0
 19 20  2  0
 20 21  1  0
 21 22  2  0
 22 23  1  0
 23 24  2  0
 23  2  1  0
 16 12  1  0
 22 17  1  0
M  END
$$$$
