
     RDKit          3D

 31 33  0  0  0  0  0  0  0  0999 V2000
   32.9474   81.9983   49.2826 Cl  0  0  0  0  0  0  0  0  0  0  0  0
   31.9184   80.9682   48.3561 O   0  0  0  0  0  0  0  0  0  0  0  0
   32.2643   82.0906   47.9331 C   0  0  0  0  0  0  0  0  0  0  0  0
   31.9633   83.2283   48.7115 N   0  0  0  0  0  0  0  0  0  0  0  0
   31.2804   83.0454   49.9422 C   0  0  0  0  0  0  0  0  0  0  0  0
   29.8981   83.0662   49.9811 C   0  0  0  0  0  0  0  0  0  0  0  0
   29.2489   82.8863   51.1834 C   0  0  0  0  0  0  0  0  0  0  0  0
   29.9800   82.6899   52.3196 C   0  0  0  0  0  0  0  0  0  0  0  0
   31.3737   82.6714   52.2640 C   0  0  0  0  0  0  0  0  0  0  0  0
   32.0291   82.8492   51.0744 C   0  0  0  0  0  0  0  0  0  0  0  0
   33.4713   82.8337   50.9984 C   0  0  0  0  0  0  0  0  0  0  0  0
   34.0354   83.0030   49.8833 O   0  0  0  0  0  0  0  0  0  0  0  0
   34.3291   82.6386   52.1033 N   0  0  0  0  0  0  0  0  0  0  0  0
   35.7462   82.6352   51.9570 C   0  0  0  0  0  0  0  0  0  0  0  0
   36.4067   81.3523   52.4413 C   0  0  0  0  0  0  0  0  0  0  0  0
   37.8159   81.8032   52.5864 C   0  0  0  0  0  0  0  0  0  0  0  0
   38.9977   81.0992   52.5265 C   0  0  0  0  0  0  0  0  0  0  0  0
   40.2314   81.7299   52.6932 C   0  0  0  0  0  0  0  0  0  0  0  0
   40.2579   83.0822   52.9216 C   0  0  0  0  0  0  0  0  0  0  0  0
   39.0668   83.7767   52.9795 C   0  0  0  0  0  0  0  0  0  0  0  0
   37.8371   83.1630   52.8158 C   0  0  0  0  0  0  0  0  0  0  0  0
   36.4361   83.6613   52.8310 C   0  0  0  0  0  0  0  0  0  0  0  0
   32.9211   82.1218   46.7222 O   0  0  0  0  0  0  0  0  0  0  0  0
   33.2154   80.9923   45.9579 C   0  0  0  0  0  0  0  0  0  0  0  0
   32.0739   80.1752   45.4962 C   0  0  0  0  0  0  0  0  0  0  0  0
   31.1035   80.8797   44.6369 C   0  0  0  0  0  0  0  0  0  0  0  0
   30.0324   81.5005   45.2923 C   0  0  0  0  0  0  0  0  0  0  0  0
   29.0858   82.1798   44.5604 C   0  0  0  0  0  0  0  0  0  0  0  0
   29.2001   82.2426   43.1938 C   0  0  0  0  0  0  0  0  0  0  0  0
   30.2595   81.6232   42.5977 N   0  0  0  0  0  0  0  0  0  0  0  0
   31.1837   80.9632   43.2805 C   0  0  0  0  0  0  0  0  0  0  0  0
  2  3  2  0
  3  4  1  0
  4  5  1  0
  5  6  2  0
  6  7  1  0
  7  8  2  0
  8  9  1  0
  9 10  2  0
 10 11  1  0
 11 12  2  0
 11 13  1  0
 13 14  1  0
 14 15  1  0
 15 16  1  0
 16 17  2  0
 17 18  1  0
 18 19  2  0
 19 20  1  0
 20 21  2  0
 21 22  1  0
  3 23  1  0
 23 24  1  0
 24 25  1  0
 25 26  1  0
 26 27  2  0
 27 28  1  0
 28 29  2  0
 29 30  1  0
 30 31  2  0
 10  5  1  0
 22 14  1  0
 31 26  1  0
 21 16  1  0
M  END
$$$$
