
     RDKit          3D

 22 24  0  0  0  0  0  0  0  0999 V2000
   12.9928   90.4077   65.3248 C   0  0  0  0  0  0  0  0  0  0  0  0
   13.7216   91.4546   64.7551 O   0  0  0  0  0  0  0  0  0  0  0  0
   13.0490   92.5018   64.1226 C   0  0  0  0  0  0  0  0  0  0  0  0
   11.7097   92.7328   64.3849 C   0  0  0  0  0  0  0  0  0  0  0  0
   11.0091   93.7724   63.7681 C   0  0  0  0  0  0  0  0  0  0  0  0
   11.6774   94.5847   62.8762 C   0  0  0  0  0  0  0  0  0  0  0  0
   11.3551   95.6779   62.0879 C   0  0  0  0  0  0  0  0  0  0  0  0
   12.4584   96.0902   61.3774 C   0  0  0  0  0  0  0  0  0  0  0  0
   12.5091   97.2104   60.4411 C   0  0  0  0  0  0  0  0  0  0  0  0
   13.5227   97.4633   59.7624 O   0  0  0  0  0  0  0  0  0  0  0  0
   11.3808   98.0549   60.2790 N   0  0  0  0  0  0  0  0  0  0  0  0
   11.3358   99.2062   59.4913 C   0  0  0  0  0  0  0  0  0  0  0  0
   12.2875   99.6064   58.5906 C   0  0  0  0  0  0  0  0  0  0  0  0
   11.8521  100.7792   58.0405 C   0  0  0  0  0  0  0  0  0  0  0  0
   12.4824  101.6495   57.0145 C   0  0  0  0  0  0  0  0  0  0  0  0
   10.6705  101.0380   58.6224 N   0  0  0  0  0  0  0  0  0  0  0  0
   10.3906  100.1017   59.4681 O   0  0  0  0  0  0  0  0  0  0  0  0
   13.4591   95.2632   61.7185 N   0  0  0  0  0  0  0  0  0  0  0  0
   13.0138   94.3492   62.6187 C   0  0  0  0  0  0  0  0  0  0  0  0
   13.7128   93.3253   63.2230 C   0  0  0  0  0  0  0  0  0  0  0  0
   15.0536   93.1370   62.9253 O   0  0  0  0  0  0  0  0  0  0  0  0
   15.4250   92.2613   61.8793 C   0  0  0  0  0  0  0  0  0  0  0  0
  1  2  1  0
  2  3  1  0
  3  4  2  0
  4  5  1  0
  5  6  2  0
  6  7  1  0
  7  8  2  0
  8  9  1  0
  9 10  2  0
  9 11  1  0
 11 12  1  0
 12 13  2  0
 13 14  1  0
 14 15  1  0
 14 16  2  0
 16 17  1  0
  8 18  1  0
 18 19  1  0
 19 20  2  0
 20 21  1  0
 21 22  1  0
 20  3  1  0
 19  6  1  0
 17 12  1  0
M  END
$$$$
