
     RDKit          3D

 28 30  0  0  0  0  0  0  0  0999 V2000
   14.1754   46.9898   18.7097 C   0  0  0  0  0  0  0  0  0  0  0  0
   15.1822   47.9670   18.6237 O   0  0  0  0  0  0  0  0  0  0  0  0
   15.0658   49.1424   17.9001 C   0  0  0  0  0  0  0  0  0  0  0  0
   13.8517   49.7225   17.5997 C   0  0  0  0  0  0  0  0  0  0  0  0
   13.7691   50.8875   16.8809 C   0  0  0  0  0  0  0  0  0  0  0  0
   14.9383   51.4810   16.4552 C   0  0  0  0  0  0  0  0  0  0  0  0
   14.8869   52.7442   15.6738 C   0  0  0  0  0  0  0  0  0  0  0  0
   15.6647   52.6104   14.3872 C   0  0  0  0  0  0  0  0  0  0  0  0
   15.5291   53.8437   13.6451 N   0  0  0  0  0  0  0  0  0  0  0  0
   16.3063   54.9971   13.8349 C   0  0  0  0  0  0  0  0  0  0  0  0
   17.4281   54.8612   14.4313 O   0  0  0  0  0  0  0  0  0  0  0  0
   15.9040   56.3497   13.3875 C   0  0  0  0  0  0  0  0  0  0  0  0
   16.7672   57.4071   13.4670 C   0  0  0  0  0  0  0  0  0  0  0  0
   16.3563   58.6484   13.0412 C   0  0  0  0  0  0  0  0  0  0  0  0
   17.1145   59.6598   13.0927 O   0  0  0  0  0  0  0  0  0  0  0  0
   15.0838   58.7832   12.5474 C   0  0  0  0  0  0  0  0  0  0  0  0
   14.6268   60.0002   12.1101 C   0  0  0  0  0  0  0  0  0  0  0  0
   13.3520   60.1630   11.6092 C   0  0  0  0  0  0  0  0  0  0  0  0
   12.8689   61.4985   11.1361 C   0  0  0  0  0  0  0  0  0  0  0  0
   12.5301   59.0454   11.5581 C   0  0  0  0  0  0  0  0  0  0  0  0
   12.9475   57.8026   11.9866 C   0  0  0  0  0  0  0  0  0  0  0  0
   12.0835   56.6736   11.9228 N   0  0  0  0  0  0  0  0  0  0  0  0
   14.2315   57.6844   12.4810 C   0  0  0  0  0  0  0  0  0  0  0  0
   14.7034   56.5429   12.9068 O   0  0  0  0  0  0  0  0  0  0  0  0
   16.1818   50.9239   16.7398 C   0  0  0  0  0  0  0  0  0  0  0  0
   16.2250   49.7487   17.4669 C   0  0  0  0  0  0  0  0  0  0  0  0
   17.4846   49.1955   17.7483 O   0  0  0  0  0  0  0  0  0  0  0  0
   18.6268   49.5396   17.0013 C   0  0  0  0  0  0  0  0  0  0  0  0
  1  2  1  0
  2  3  1  0
  3  4  2  0
  4  5  1  0
  5  6  2  0
  6  7  1  0
  7  8  1  0
  8  9  1  0
  9 10  1  0
 10 11  2  0
 10 12  1  0
 12 13  2  0
 13 14  1  0
 14 15  2  0
 14 16  1  0
 16 17  2  0
 17 18  1  0
 18 19  1  0
 18 20  2  0
 20 21  1  0
 21 22  1  0
 21 23  2  0
 23 24  1  0
  6 25  1  0
 25 26  2  0
 26 27  1  0
 27 28  1  0
 26  3  1  0
 24 12  1  0
 23 16  1  0
M  END
$$$$
