
     RDKit          3D

 21 23  0  0  0  0  0  0  0  0999 V2000
   10.7052  103.4129   58.8203 N   0  0  0  0  0  0  0  0  0  0  0  0
   10.8640  102.5819   58.0299 C   0  0  0  0  0  0  0  0  0  0  0  0
   11.0578  101.5062   57.0393 C   0  0  0  0  0  0  0  0  0  0  0  0
   11.5893  100.2984   57.6928 C   0  0  0  0  0  0  0  0  0  0  0  0
   11.7008  100.1931   59.0449 N   0  0  0  0  0  0  0  0  0  0  0  0
   12.1946   99.0002   59.3263 C   0  0  0  0  0  0  0  0  0  0  0  0
   12.5040   98.3678   60.5150 C   0  0  0  0  0  0  0  0  0  0  0  0
   13.0116   97.0920   60.5396 C   0  0  0  0  0  0  0  0  0  0  0  0
   13.4106   96.2732   62.0394 Cl  0  0  0  0  0  0  0  0  0  0  0  0
   13.2105   96.4439   59.3549 C   0  0  0  0  0  0  0  0  0  0  0  0
   12.9012   97.0748   58.1535 C   0  0  0  0  0  0  0  0  0  0  0  0
   12.3937   98.3540   58.1399 C   0  0  0  0  0  0  0  0  0  0  0  0
   12.0148   99.1685   57.1191 N   0  0  0  0  0  0  0  0  0  0  0  0
   12.0806   98.8469   55.7184 C   0  0  0  0  0  0  0  0  0  0  0  0
   13.2871   99.3404   55.0232 C   0  0  0  0  0  0  0  0  0  0  0  0
   13.4434   99.1284   53.6713 C   0  0  0  0  0  0  0  0  0  0  0  0
   14.5993   99.6244   53.0545 C   0  0  0  0  0  0  0  0  0  0  0  0
   15.5706  100.3059   53.7417 C   0  0  0  0  0  0  0  0  0  0  0  0
   16.7489  100.8047   53.0812 N   0  0  0  0  0  0  0  0  0  0  0  0
   15.3843  100.4930   55.0575 N   0  0  0  0  0  0  0  0  0  0  0  0
   14.2657  100.0193   55.6818 C   0  0  0  0  0  0  0  0  0  0  0  0
  1  2  3  0
  2  3  1  0
  3  4  1  0
  4  5  2  0
  5  6  1  0
  6  7  2  0
  7  8  1  0
  8  9  1  0
  8 10  2  0
 10 11  1  0
 11 12  2  0
 12 13  1  0
 13 14  1  0
 14 15  1  0
 15 16  2  0
 16 17  1  0
 17 18  2  0
 18 19  1  0
 18 20  1  0
 20 21  2  0
 13  4  1  0
 21 15  1  0
 12  6  1  0
M  END
$$$$
