
     RDKit          3D

 32 35  0  0  0  0  0  0  0  0999 V2000
   11.2802  104.0733   58.3595 C   0  0  0  0  0  0  0  0  0  0  0  0
   11.2145  102.6852   58.5416 O   0  0  0  0  0  0  0  0  0  0  0  0
   12.0793  101.7839   57.9344 C   0  0  0  0  0  0  0  0  0  0  0  0
   13.0184  102.2249   57.0299 C   0  0  0  0  0  0  0  0  0  0  0  0
   13.8673  101.2952   56.4472 C   0  0  0  0  0  0  0  0  0  0  0  0
   14.8568  101.6667   55.5714 C   0  0  0  0  0  0  0  0  0  0  0  0
   15.7497  100.7719   55.0067 C   0  0  0  0  0  0  0  0  0  0  0  0
   15.6177   99.4351   55.3595 C   0  0  0  0  0  0  0  0  0  0  0  0
   14.6394   99.0204   56.2307 C   0  0  0  0  0  0  0  0  0  0  0  0
   13.7612   99.9352   56.7762 C   0  0  0  0  0  0  0  0  0  0  0  0
   12.8259   99.4706   57.6741 C   0  0  0  0  0  0  0  0  0  0  0  0
   12.6490   98.1981   58.0280 O   0  0  0  0  0  0  0  0  0  0  0  0
   12.3104   97.4589   59.0909 C   0  0  0  0  0  0  0  0  0  0  0  0
   12.1160   96.0134   59.1456 C   0  0  0  0  0  0  0  0  0  0  0  0
   11.7502   95.4227   60.3933 N   0  0  0  0  0  0  0  0  0  0  0  0
   12.5177   94.7753   61.2828 C   0  0  0  0  0  0  0  0  0  0  0  0
   11.7645   94.3429   62.3560 C   0  0  0  0  0  0  0  0  0  0  0  0
   12.2137   93.6280   63.5296 C   0  0  0  0  0  0  0  0  0  0  0  0
   11.9201   94.0300   64.7037 O   0  0  0  0  0  0  0  0  0  0  0  0
   13.0050   92.4461   63.4428 N   0  0  0  0  0  0  0  0  0  0  0  0
   13.0636   91.4933   64.5283 C   0  0  2  0  0  0  0  0  0  0  0  0
   13.9586   90.3144   64.2242 C   0  0  0  0  0  0  0  0  0  0  0  0
   13.7597   89.2610   65.2832 C   0  0  0  0  0  0  0  0  0  0  0  0
   13.2225   89.9209   66.5250 C   0  0  0  0  0  0  0  0  0  0  0  0
   11.8806   90.3805   66.2938 N   0  0  0  0  0  0  0  0  0  0  0  0
   11.2680   91.0595   67.3946 C   0  0  0  0  0  0  0  0  0  0  0  0
   11.7115   91.0942   65.0698 C   0  0  0  0  0  0  0  0  0  0  0  0
   10.4812   94.7630   62.0775 C   0  0  0  0  0  0  0  0  0  0  0  0
   10.4924   95.4071   60.9005 N   0  0  0  0  0  0  0  0  0  0  0  0
   11.9989  100.4390   58.2357 C   0  0  0  0  0  0  0  0  0  0  0  0
   11.0434  100.0569   59.1440 O   0  0  0  0  0  0  0  0  0  0  0  0
   11.0460  100.7508   60.4043 C   0  0  0  0  0  0  0  0  0  0  0  0
  1  2  1  0
  2  3  1  0
  3  4  2  0
  4  5  1  0
  5  6  2  0
  6  7  1  0
  7  8  2  0
  8  9  1  0
  9 10  2  0
 10 11  1  0
 11 12  1  0
 12 13  1  0
 13 14  1  0
 14 15  1  0
 15 16  1  0
 16 17  2  0
 17 18  1  0
 18 19  2  0
 18 20  1  0
 21 20  1  6
 21 22  1  0
 22 23  1  0
 23 24  1  0
 24 25  1  0
 25 26  1  0
 25 27  1  0
 17 28  1  0
 28 29  2  0
 11 30  2  0
 30 31  1  0
 31 32  1  0
 30  3  1  0
 10  5  1  0
 29 15  1  0
 27 21  1  0
M  END
$$$$
