
     RDKit          3D

 17 17  0  0  0  0  0  0  0  0999 V2000
   38.8957   80.4544   48.2473 C   0  0  0  0  0  0  0  0  0  0  0  0
   37.5741   80.2297   48.9498 C   0  0  0  0  0  0  0  0  0  0  0  0
   37.0615   81.4520   49.3005 O   0  0  0  0  0  0  0  0  0  0  0  0
   36.9223   81.6506   50.6593 C   0  0  0  0  0  0  0  0  0  0  0  0
   35.7171   82.5155   50.9186 C   0  0  0  0  0  0  0  0  0  0  0  0
   34.5648   81.9287   50.3978 O   0  0  0  0  0  0  0  0  0  0  0  0
   33.2871   82.1352   50.8975 C   0  0  0  0  0  0  0  0  0  0  0  0
   33.0890   82.5268   52.2099 C   0  0  0  0  0  0  0  0  0  0  0  0
   31.8122   82.7287   52.6939 C   0  0  0  0  0  0  0  0  0  0  0  0
   30.7245   82.5365   51.8553 C   0  0  0  0  0  0  0  0  0  0  0  0
   29.3346   82.7538   52.3737 C   0  0  0  0  0  0  0  0  0  0  0  0
   28.4975   82.8570   51.2819 F   0  0  0  0  0  0  0  0  0  0  0  0
   29.0417   81.6791   53.1737 F   0  0  0  0  0  0  0  0  0  0  0  0
   29.3240   83.8843   53.1610 F   0  0  0  0  0  0  0  0  0  0  0  0
   30.8788   82.1466   50.5418 C   0  0  0  0  0  0  0  0  0  0  0  0
   32.1803   81.9549   50.0967 C   0  0  0  0  0  0  0  0  0  0  0  0
   32.4424   81.5478   48.7418 N   0  0  0  0  0  0  0  0  0  0  0  0
  1  2  1  0
  2  3  1  0
  3  4  1  0
  4  5  1  0
  5  6  1  0
  6  7  1  0
  7  8  2  0
  8  9  1  0
  9 10  2  0
 10 11  1  0
 11 12  1  0
 11 13  1  0
 11 14  1  0
 10 15  1  0
 15 16  2  0
 16 17  1  0
 16  7  1  0
M  END
$$$$
