
     RDKit          3D

 26 28  0  0  0  0  0  0  0  0999 V2000
   -7.8136   57.0321   33.6098 C   0  0  0  0  0  0  0  0  0  0  0  0
   -8.7445   56.2569   32.9222 O   0  0  0  0  0  0  0  0  0  0  0  0
   -9.7213   56.8176   32.1084 C   0  0  0  0  0  0  0  0  0  0  0  0
  -10.7527   56.1293   31.5475 C   0  0  0  0  0  0  0  0  0  0  0  0
  -11.6969   56.7301   30.7468 C   0  0  0  0  0  0  0  0  0  0  0  0
  -11.6148   58.0792   30.4899 C   0  0  0  0  0  0  0  0  0  0  0  0
  -10.5856   58.8134   31.0393 C   0  0  0  0  0  0  0  0  0  0  0  0
   -9.6493   58.1905   31.8386 C   0  0  0  0  0  0  0  0  0  0  0  0
  -10.4900   60.1721   30.7798 C   0  0  0  0  0  0  0  0  0  0  0  0
   -9.4610   61.0171   31.3487 C   0  0  0  0  0  0  0  0  0  0  0  0
   -8.1480   60.7453   31.0270 C   0  0  0  0  0  0  0  0  0  0  0  0
   -7.1155   61.5287   31.5152 C   0  0  0  0  0  0  0  0  0  0  0  0
   -5.7795   61.2919   31.2174 O   0  0  0  0  0  0  0  0  0  0  0  0
   -5.4978   60.1666   30.4055 C   0  0  0  0  0  0  0  0  0  0  0  0
   -7.4671   62.5983   32.3423 C   0  0  0  0  0  0  0  0  0  0  0  0
   -6.4603   63.3766   32.8292 O   0  0  0  0  0  0  0  0  0  0  0  0
   -5.6012   64.1843   32.0551 C   0  0  0  0  0  0  0  0  0  0  0  0
   -8.7641   62.8809   32.6703 C   0  0  0  0  0  0  0  0  0  0  0  0
   -9.0321   63.9611   33.4977 O   0  0  0  0  0  0  0  0  0  0  0  0
  -10.3253   64.0572   34.0705 C   0  0  0  0  0  0  0  0  0  0  0  0
   -9.7882   62.0754   32.1647 C   0  0  0  0  0  0  0  0  0  0  0  0
  -11.4300   60.7984   29.9635 C   0  0  0  0  0  0  0  0  0  0  0  0
  -12.4324   60.0151   29.4440 C   0  0  0  0  0  0  0  0  0  0  0  0
  -13.2845   60.5736   28.7062 O   0  0  0  0  0  0  0  0  0  0  0  0
  -12.5216   58.7015   29.6987 N   0  0  0  0  0  0  0  0  0  0  0  0
  -13.6067   57.8998   29.1259 C   0  0  0  0  0  0  0  0  0  0  0  0
  1  2  1  0
  2  3  1  0
  3  4  2  0
  4  5  1  0
  5  6  2  0
  6  7  1  0
  7  8  2  0
  7  9  1  0
  9 10  1  0
 10 11  2  0
 11 12  1  0
 12 13  1  0
 13 14  1  0
 12 15  2  0
 15 16  1  0
 16 17  1  0
 15 18  1  0
 18 19  1  0
 19 20  1  0
 18 21  2  0
  9 22  2  0
 22 23  1  0
 23 24  2  0
 23 25  1  0
 25 26  1  0
  8  3  1  0
 21 10  1  0
 25  6  1  0
M  END
$$$$
