
     RDKit          3D

 21 23  0  0  0  0  0  0  0  0999 V2000
   12.6882   62.0908   13.8528 N   0  0  0  0  0  0  0  0  0  0  0  0
   12.8061   60.9095   13.0921 C   0  0  0  0  0  0  0  0  0  0  0  0
   11.9058   60.6035   12.0710 C   0  0  0  0  0  0  0  0  0  0  0  0
   12.0163   59.4520   11.3254 C   0  0  0  0  0  0  0  0  0  0  0  0
   13.0442   58.5655   11.5861 C   0  0  0  0  0  0  0  0  0  0  0  0
   13.1919   57.4224   10.8797 N   0  0  0  0  0  0  0  0  0  0  0  0
   14.1962   56.5474   11.1279 C   0  0  0  0  0  0  0  0  0  0  0  0
   15.1296   56.7694   12.1167 C   0  0  0  0  0  0  0  0  0  0  0  0
   16.2166   55.8360   12.3954 C   0  0  0  0  0  0  0  0  0  0  0  0
   17.4041   56.2477   12.1531 O   0  0  0  0  0  0  0  0  0  0  0  0
   16.0071   54.5371   12.9065 N   0  0  0  0  0  0  0  0  0  0  0  0
   14.6975   54.2962   13.4464 C   0  0  0  0  0  0  0  0  0  0  0  0
   14.8226   54.4214   14.9703 C   0  0  0  0  0  0  0  0  0  0  0  0
   15.3269   53.1232   15.5642 C   0  0  0  0  0  0  0  0  0  0  0  0
   16.7669   52.8471   15.1793 C   0  0  0  0  0  0  0  0  0  0  0  0
   16.9200   52.4246   13.7526 C   0  0  0  0  0  0  0  0  0  0  0  0
   17.1168   53.6296   12.8236 C   0  0  0  0  0  0  0  0  0  0  0  0
   15.0003   57.9280   12.8509 C   0  0  0  0  0  0  0  0  0  0  0  0
   15.8076   58.2018   13.7661 O   0  0  0  0  0  0  0  0  0  0  0  0
   13.9580   58.8254   12.5854 C   0  0  0  0  0  0  0  0  0  0  0  0
   13.8158   59.9819   13.3066 C   0  0  0  0  0  0  0  0  0  0  0  0
  1  2  1  0
  2  3  2  0
  3  4  1  0
  4  5  2  0
  5  6  1  0
  6  7  1  0
  7  8  2  0
  8  9  1  0
  9 10  2  0
  9 11  1  0
 11 12  1  0
 12 13  1  0
 13 14  1  0
 14 15  1  0
 15 16  1  0
 16 17  1  0
  8 18  1  0
 18 19  2  0
 18 20  1  0
 20 21  2  0
 21  2  1  0
 20  5  1  0
 17 11  1  0
M  END
$$$$
