
     RDKit          3D

 43 48  0  0  0  0  0  0  0  0999 V2000
   -6.0116   59.1904   30.3558 O   0  0  0  0  0  0  0  0  0  0  0  0
   -5.2422   59.9583   31.0540 C   0  0  0  0  0  0  0  0  0  0  0  0
   -3.7863   59.8268   31.0777 C   0  0  0  0  0  0  0  0  0  0  0  0
   -3.0522   60.2805   29.8718 C   0  0  0  0  0  0  0  0  0  0  0  0
   -1.9681   59.4028   29.3669 C   0  0  0  0  0  0  0  0  0  0  0  0
   -1.2530   59.8426   28.2985 F   0  0  0  0  0  0  0  0  0  0  0  0
   -1.0368   59.2918   30.4257 F   0  0  0  0  0  0  0  0  0  0  0  0
   -2.4149   58.1155   29.1040 F   0  0  0  0  0  0  0  0  0  0  0  0
   -5.9271   60.9494   31.8092 N   0  0  0  0  0  0  0  0  0  0  0  0
   -5.2066   61.9689   32.5004 C   0  0  0  0  0  0  0  0  0  0  0  0
   -5.9600   63.2632   32.2720 C   0  0  0  0  0  0  0  0  0  0  0  0
   -7.2554   63.3489   32.2531 C   0  0  0  0  0  0  0  0  0  0  0  0
   -8.0288   64.5813   32.0358 C   0  0  0  0  0  0  0  0  0  0  0  0
   -7.5133   65.8227   32.3661 C   0  0  0  0  0  0  0  0  0  0  0  0
   -8.2548   66.9778   32.2225 C   0  0  0  0  0  0  0  0  0  0  0  0
   -9.5284   66.9237   31.7430 C   0  0  0  0  0  0  0  0  0  0  0  0
  -10.0544   65.7290   31.4104 N   0  0  0  0  0  0  0  0  0  0  0  0
  -11.2376   65.3593   30.9191 N   0  0  0  0  0  0  0  0  0  0  0  0
  -11.2811   64.0479   30.7470 C   0  0  0  0  0  0  0  0  0  0  0  0
  -12.3687   63.2555   30.1988 N   0  0  0  0  0  0  0  0  0  0  0  0
  -12.2044   61.8361   30.2149 C   0  0  0  0  0  0  0  0  0  0  0  0
  -13.3594   61.0551   30.1212 C   0  0  0  0  0  0  0  0  0  0  0  0
  -13.2868   59.6847   30.0187 C   0  0  0  0  0  0  0  0  0  0  0  0
  -12.0348   59.0515   30.0067 C   0  0  0  0  0  0  0  0  0  0  0  0
  -11.9980   57.6250   29.8240 C   0  0  0  0  0  0  0  0  0  0  0  0
  -12.1139   57.1905   28.5899 O   0  0  0  0  0  0  0  0  0  0  0  0
  -11.8535   56.6558   30.7910 N   0  0  0  0  0  0  0  0  0  0  0  0
  -11.1808   57.0132   32.0608 C   0  0  0  0  0  0  0  0  0  0  0  0
  -12.2319   56.7902   33.1118 C   0  0  0  0  0  0  0  0  0  0  0  0
  -12.6200   55.3036   33.2232 C   0  0  0  0  0  0  0  0  0  0  0  0
  -11.4488   54.5659   33.7683 C   0  0  0  0  0  0  0  0  0  0  0  0
  -11.6856   53.6521   34.9104 C   0  0  0  0  0  0  0  0  0  0  0  0
  -12.5693   54.2829   35.8782 N   0  0  0  0  0  0  0  0  0  0  0  0
  -13.8648   54.3452   35.2162 C   0  0  0  0  0  0  0  0  0  0  0  0
  -13.8612   55.2965   34.0725 C   0  0  0  0  0  0  0  0  0  0  0  0
  -12.9854   54.7490   31.8857 C   0  0  0  0  0  0  0  0  0  0  0  0
  -12.3124   55.2970   30.6895 C   0  0  0  0  0  0  0  0  0  0  0  0
  -10.8998   59.8310   30.1044 C   0  0  0  0  0  0  0  0  0  0  0  0
  -10.9927   61.2083   30.2077 C   0  0  0  0  0  0  0  0  0  0  0  0
  -10.0884   63.5654   31.1439 N   0  0  0  0  0  0  0  0  0  0  0  0
   -9.3278   64.6011   31.5525 C   0  0  0  0  0  0  0  0  0  0  0  0
   -8.0457   62.0890   32.4126 C   0  0  0  0  0  0  0  0  0  0  0  0
   -7.3752   60.8675   31.8742 C   0  0  0  0  0  0  0  0  0  0  0  0
  1  2  2  0
  2  3  1  0
  3  4  1  0
  4  5  1  0
  5  6  1  0
  5  7  1  0
  5  8  1  0
  2  9  1  0
  9 10  1  0
 10 11  1  0
 11 12  2  0
 12 13  1  0
 13 14  2  0
 14 15  1  0
 15 16  2  0
 16 17  1  0
 17 18  1  0
 18 19  2  0
 19 20  1  0
 20 21  1  0
 21 22  2  0
 22 23  1  0
 23 24  2  0
 24 25  1  0
 25 26  2  0
 25 27  1  0
 27 28  1  0
 28 29  1  0
 29 30  1  0
 30 31  1  0
 31 32  1  0
 32 33  1  0
 33 34  1  0
 34 35  1  0
 30 36  1  0
 36 37  1  0
 24 38  1  0
 38 39  2  0
 19 40  1  0
 40 41  2  0
 12 42  1  0
 42 43  1  0
 43  9  1  0
 41 13  1  0
 41 17  1  0
 39 21  1  0
 37 27  1  0
 35 30  1  0
M  END
$$$$
