
     RDKit          3D

 23 25  0  0  0  0  0  0  0  0999 V2000
   11.2441   91.4380   64.0921 C   0  0  0  0  0  0  0  0  0  0  0  0
   11.2445   92.9621   64.4708 C   0  0  0  0  0  0  0  0  0  0  0  0
   12.6576   93.3715   64.3948 C   0  0  0  0  0  0  0  0  0  0  0  0
   13.6002   93.0441   65.2842 O   0  0  0  0  0  0  0  0  0  0  0  0
   14.7333   93.5461   64.9535 N   0  0  0  0  0  0  0  0  0  0  0  0
   14.6156   94.2406   63.8193 C   0  0  0  0  0  0  0  0  0  0  0  0
   15.6846   94.9665   63.1118 C   0  0  0  0  0  0  0  0  0  0  0  0
   13.2547   94.1321   63.4434 C   0  0  0  0  0  0  0  0  0  0  0  0
   12.7869   94.7722   62.2872 N   0  0  0  0  0  0  0  0  0  0  0  0
   11.6848   95.6015   62.0611 C   0  0  0  0  0  0  0  0  0  0  0  0
   10.8708   95.8600   62.9404 O   0  0  0  0  0  0  0  0  0  0  0  0
   11.4333   96.2317   60.7084 C   0  0  0  0  0  0  0  0  0  0  0  0
   10.3070   97.2057   60.7697 C   0  0  0  0  0  0  0  0  0  0  0  0
   10.7270   98.3948   59.9416 C   0  0  0  0  0  0  0  0  0  0  0  0
   10.8377   99.6712   60.3420 N   0  0  0  0  0  0  0  0  0  0  0  0
   11.2325  100.3950   59.3080 N   0  0  0  0  0  0  0  0  0  0  0  0
   11.3751   99.5835   58.2451 C   0  0  0  0  0  0  0  0  0  0  0  0
   11.7973   99.9668   56.8873 C   0  0  0  0  0  0  0  0  0  0  0  0
   11.9391  101.2410   56.3870 C   0  0  0  0  0  0  0  0  0  0  0  0
   12.3552  101.1466   55.0663 C   0  0  0  0  0  0  0  0  0  0  0  0
   12.4482   99.7836   54.8229 C   0  0  0  0  0  0  0  0  0  0  0  0
   12.1136   99.1547   55.9124 O   0  0  0  0  0  0  0  0  0  0  0  0
   11.0600   98.3869   58.6724 O   0  0  0  0  0  0  0  0  0  0  0  0
  1  2  1  0
  2  3  1  0
  3  4  1  0
  4  5  1  0
  5  6  2  0
  6  7  1  0
  6  8  1  0
  8  9  1  0
  9 10  1  0
 10 11  2  0
 10 12  1  0
 12 13  1  0
 13 14  1  0
 14 15  2  0
 15 16  1  0
 16 17  2  0
 17 18  1  0
 18 19  2  0
 19 20  1  0
 20 21  2  0
 21 22  1  0
 17 23  1  0
  8  3  2  0
 23 14  1  0
 22 18  1  0
M  END
$$$$
