
     RDKit          3D

 26 29  0  0  0  0  0  0  0  0999 V2000
    8.7247   98.7378   60.0717 C   0  0  0  0  0  0  0  0  0  0  0  0
   10.1525   98.4233   59.7452 C   0  0  0  0  0  0  0  0  0  0  0  0
   10.8404   97.4676   60.4621 C   0  0  0  0  0  0  0  0  0  0  0  0
   12.1736   97.1683   60.1607 C   0  0  0  0  0  0  0  0  0  0  0  0
   12.8221   96.1745   60.9492 N   0  0  0  0  0  0  0  0  0  0  0  0
   12.2153   95.6844   62.1550 C   0  0  0  0  0  0  0  0  0  0  0  0
   12.9430   94.5136   62.6862 C   0  0  0  0  0  0  0  0  0  0  0  0
   12.2932   93.4145   63.2482 C   0  0  0  0  0  0  0  0  0  0  0  0
   10.8518   93.2453   63.4039 C   0  0  0  0  0  0  0  0  0  0  0  0
   10.0197   93.5349   62.3372 C   0  0  0  0  0  0  0  0  0  0  0  0
    8.6373   93.3908   62.4364 C   0  0  0  0  0  0  0  0  0  0  0  0
    8.0764   92.9519   63.6163 C   0  0  0  0  0  0  0  0  0  0  0  0
    8.9266   92.6695   64.6663 C   0  0  0  0  0  0  0  0  0  0  0  0
   10.2664   92.8208   64.5344 N   0  0  0  0  0  0  0  0  0  0  0  0
   13.2890   92.5798   63.6048 N   0  0  0  0  0  0  0  0  0  0  0  0
   14.4353   93.0935   63.3027 O   0  0  0  0  0  0  0  0  0  0  0  0
   14.2838   94.2875   62.7324 C   0  0  0  0  0  0  0  0  0  0  0  0
   15.3677   95.1837   62.2478 C   0  0  0  0  0  0  0  0  0  0  0  0
   12.7708   97.8219   59.1682 N   0  0  0  0  0  0  0  0  0  0  0  0
   14.0074   97.7252   58.6938 N   0  0  0  0  0  0  0  0  0  0  0  0
   14.1894   98.5898   57.6688 C   0  0  0  0  0  0  0  0  0  0  0  0
   15.4244   98.8039   56.8574 C   0  0  0  0  0  0  0  0  0  0  0  0
   13.0011   99.2415   57.5177 C   0  0  0  0  0  0  0  0  0  0  0  0
   12.6601  100.3027   56.5285 C   0  0  0  0  0  0  0  0  0  0  0  0
   12.1134   98.7571   58.4597 C   0  0  0  0  0  0  0  0  0  0  0  0
   10.8123   99.0566   58.7458 N   0  0  0  0  0  0  0  0  0  0  0  0
  1  2  1  0
  2  3  1  0
  3  4  2  0
  4  5  1  0
  5  6  1  0
  6  7  1  0
  7  8  1  0
  8  9  1  0
  9 10  2  0
 10 11  1  0
 11 12  2  0
 12 13  1  0
 13 14  2  0
  8 15  2  0
 15 16  1  0
 16 17  1  0
 17 18  1  0
  4 19  1  0
 19 20  1  0
 20 21  2  0
 21 22  1  0
 21 23  1  0
 23 24  1  0
 23 25  2  0
 25 26  1  0
 26  2  2  0
 17  7  2  0
 25 19  1  0
 14  9  1  0
M  END
$$$$
