
     RDKit          3D

 17 17  0  0  0  0  0  0  0  0999 V2000
   34.6157   81.1185   49.9117 C   0  0  0  0  0  0  0  0  0  0  0  0
   35.3063   81.9322   50.9275 N   0  0  0  0  0  0  0  0  0  0  0  0
   36.7128   82.1001   50.9215 C   0  0  0  0  0  0  0  0  0  0  0  0
   37.5397   81.1526   51.7004 C   0  0  0  0  0  0  0  0  0  0  0  0
   38.5906   81.8440   52.5125 C   0  0  0  0  0  0  0  0  0  0  0  0
   36.5907   80.4596   52.6926 C   0  0  0  0  0  0  0  0  0  0  0  0
   38.1162   80.0222   50.8685 C   0  0  0  0  0  0  0  0  0  0  0  0
   34.5031   82.5448   51.9180 C   0  0  0  0  0  0  0  0  0  0  0  0
   34.9732   83.1095   52.9325 O   0  0  0  0  0  0  0  0  0  0  0  0
   33.0287   82.5656   51.8331 C   0  0  0  0  0  0  0  0  0  0  0  0
   32.2539   82.6659   52.9821 C   0  0  0  0  0  0  0  0  0  0  0  0
   30.8793   82.6888   52.9299 C   0  0  0  0  0  0  0  0  0  0  0  0
   30.2173   82.6123   51.7192 C   0  0  0  0  0  0  0  0  0  0  0  0
   28.4631   82.6370   51.5965 Cl  0  0  0  0  0  0  0  0  0  0  0  0
   30.9892   82.5128   50.5778 C   0  0  0  0  0  0  0  0  0  0  0  0
   30.3173   82.4327   49.3184 N   0  0  0  0  0  0  0  0  0  0  0  0
   32.3639   82.4904   50.6395 C   0  0  0  0  0  0  0  0  0  0  0  0
  1  2  1  0
  2  3  1  0
  3  4  1  0
  4  5  1  0
  4  6  1  0
  4  7  1  0
  2  8  1  0
  8  9  2  0
  8 10  1  0
 10 11  2  0
 11 12  1  0
 12 13  2  0
 13 14  1  0
 13 15  1  0
 15 16  1  0
 15 17  2  0
 17 10  1  0
M  END
$$$$
