
     RDKit          3D

 21 23  0  0  0  0  0  0  0  0999 V2000
   14.7227   91.9086   63.3807 C   0  0  0  0  0  0  0  0  0  0  0  0
   13.9698   93.1902   63.0997 C   0  0  0  0  0  0  0  0  0  0  0  0
   12.5105   92.9908   63.4937 C   0  0  0  0  0  0  0  0  0  0  0  0
   11.7482   94.1726   63.1904 N   0  0  0  0  0  0  0  0  0  0  0  0
   10.6366   94.5874   63.7551 N   0  0  0  0  0  0  0  0  0  0  0  0
   10.2617   95.7061   63.1867 N   0  0  0  0  0  0  0  0  0  0  0  0
   11.1521   96.0222   62.2323 C   0  0  0  0  0  0  0  0  0  0  0  0
   11.1109   97.1467   61.3859 N   0  0  0  0  0  0  0  0  0  0  0  0
   11.9538   97.2196   60.2446 C   0  0  0  0  0  0  0  0  0  0  0  0
   12.7515   96.3276   59.9149 O   0  0  0  0  0  0  0  0  0  0  0  0
   11.8651   98.4372   59.4044 C   0  0  0  0  0  0  0  0  0  0  0  0
   11.1227   99.5658   59.6487 C   0  0  0  0  0  0  0  0  0  0  0  0
   11.3605  100.4015   58.5562 C   0  0  0  0  0  0  0  0  0  0  0  0
   10.7711  101.7635   58.3489 C   0  0  0  0  0  0  0  0  0  0  0  0
   12.2197   99.7488   57.7210 N   0  0  0  0  0  0  0  0  0  0  0  0
   12.6533  100.3550   56.4782 C   0  0  0  0  0  0  0  0  0  0  0  0
   14.1096   99.9393   56.1158 C   0  0  0  0  0  0  0  0  0  0  0  0
   13.7248  101.3422   56.3854 C   0  0  0  0  0  0  0  0  0  0  0  0
   12.5498   98.5589   58.1980 C   0  0  0  0  0  0  0  0  0  0  0  0
   13.4494   97.5671   57.6008 C   0  0  0  0  0  0  0  0  0  0  0  0
   12.0798   95.0343   62.2581 N   0  0  0  0  0  0  0  0  0  0  0  0
  1  2  1  0
  2  3  1  0
  3  4  1  0
  4  5  1  0
  5  6  2  0
  6  7  1  0
  7  8  1  0
  8  9  1  0
  9 10  2  0
  9 11  1  0
 11 12  1  0
 12 13  2  0
 13 14  1  0
 13 15  1  0
 15 16  1  0
 16 17  1  0
 17 18  1  0
 15 19  1  0
 19 20  1  0
  7 21  2  0
 21  4  1  0
 19 11  2  0
 18 16  1  0
M  END
$$$$
