
     RDKit          3D

 18 20  0  0  0  0  0  0  0  0999 V2000
   33.1342   82.4893   51.9866 O   0  0  0  0  0  0  0  0  0  0  0  0
   33.1659   82.3552   50.7525 C   0  0  0  0  0  0  0  0  0  0  0  0
   34.4461   82.0643   50.0276 C   0  0  0  0  0  0  0  0  0  0  0  0
   34.5545   80.5932   49.6704 C   0  0  0  0  0  0  0  0  0  0  0  0
   35.4151   80.6497   48.5014 N   0  0  0  0  0  0  0  0  0  0  0  0
   34.9999   81.7973   47.7564 C   0  0  0  0  0  0  0  0  0  0  0  0
   34.2176   82.6955   48.6856 C   0  0  0  0  0  0  0  0  0  0  0  0
   32.7477   82.5239   48.5055 C   0  0  0  0  0  0  0  0  0  0  0  0
   32.2383   82.4864   47.3515 O   0  0  0  0  0  0  0  0  0  0  0  0
   32.1426   82.4260   49.7804 N   0  0  0  0  0  0  0  0  0  0  0  0
   30.7035   82.4044   50.0027 C   0  0  0  0  0  0  0  0  0  0  0  0
   30.1645   81.0446   50.1742 C   0  0  0  0  0  0  0  0  0  0  0  0
   29.8509   80.6576   51.5909 C   0  0  0  0  0  0  0  0  0  0  0  0
   28.8057   81.6911   52.0513 C   0  0  0  0  0  0  0  0  0  0  0  0
   29.6079   82.9511   52.2489 C   0  0  0  0  0  0  0  0  0  0  0  0
   28.7697   83.9602   52.7233 F   0  0  0  0  0  0  0  0  0  0  0  0
   30.5637   82.6985   53.2203 F   0  0  0  0  0  0  0  0  0  0  0  0
   30.2470   83.3969   50.9827 C   0  0  0  0  0  0  0  0  0  0  0  0
  1  2  2  0
  2  3  1  0
  3  4  1  0
  4  5  1  0
  5  6  1  0
  6  7  1  0
  7  8  1  0
  8  9  2  0
  8 10  1  0
 10 11  1  0
 11 12  1  0
 12 13  1  0
 13 14  1  0
 14 15  1  0
 15 16  1  0
 15 17  1  0
 15 18  1  0
 10  2  1  0
 18 11  1  0
  7  3  1  0
M  END
$$$$
