
     RDKit          3D

 22 24  0  0  0  0  0  0  0  0999 V2000
    9.5207   96.7106   61.5785 C   0  0  0  0  0  0  0  0  0  0  0  0
   11.0050   96.4889   61.5716 C   0  0  0  0  0  0  0  0  0  0  0  0
   11.5796   95.5303   62.3116 N   0  0  0  0  0  0  0  0  0  0  0  0
   12.9002   95.2965   62.3366 C   0  0  0  0  0  0  0  0  0  0  0  0
   13.3722   94.2517   63.1635 N   0  0  0  0  0  0  0  0  0  0  0  0
   14.7510   93.8496   63.2884 C   0  0  0  0  0  0  0  0  0  0  0  0
   14.7493   92.5994   64.1452 C   0  0  0  0  0  0  0  0  0  0  0  0
   13.3177   92.1513   64.2289 C   0  0  0  0  0  0  0  0  0  0  0  0
   12.5339   93.4320   64.0073 C   0  0  0  0  0  0  0  0  0  0  0  0
   13.7358   96.0490   61.5860 N   0  0  0  0  0  0  0  0  0  0  0  0
   13.2039   97.0222   60.8279 C   0  0  0  0  0  0  0  0  0  0  0  0
   11.8504   97.2608   60.8033 C   0  0  0  0  0  0  0  0  0  0  0  0
   11.2465   98.3133   59.9872 C   0  0  0  0  0  0  0  0  0  0  0  0
   10.2250   98.9381   60.3991 O   0  0  0  0  0  0  0  0  0  0  0  0
   11.8056   98.6368   58.7297 N   0  0  0  0  0  0  0  0  0  0  0  0
   10.8666   99.1657   57.7677 C   0  0  0  0  0  0  0  0  0  0  0  0
   11.4889  100.3646   57.0455 C   0  0  0  0  0  0  0  0  0  0  0  0
   12.3741   99.9617   56.0690 O   0  0  0  0  0  0  0  0  0  0  0  0
   13.6324   99.6672   56.5787 C   0  0  0  0  0  0  0  0  0  0  0  0
   13.6937   98.2969   57.1884 C   0  0  2  0  0  0  0  0  0  0  0  0
   12.9585   97.3550   56.4534 O   0  0  0  0  0  0  0  0  0  0  0  0
   13.2142   98.3887   58.6091 C   0  0  0  0  0  0  0  0  0  0  0  0
  1  2  1  0
  2  3  2  0
  3  4  1  0
  4  5  1  0
  5  6  1  0
  6  7  1  0
  7  8  1  0
  8  9  1  0
  4 10  2  0
 10 11  1  0
 11 12  2  0
 12 13  1  0
 13 14  2  0
 13 15  1  0
 15 16  1  0
 16 17  1  0
 17 18  1  0
 18 19  1  0
 19 20  1  0
 20 21  1  6
 20 22  1  0
 12  2  1  0
 22 15  1  0
  9  5  1  0
M  END
$$$$
