
     RDKit          3D

 32 37  0  0  0  0  0  0  0  0999 V2000
   17.9421   52.9439   11.1504 O   0  0  0  0  0  0  0  0  0  0  0  0
   17.4388   54.0526   11.4767 C   0  0  0  0  0  0  0  0  0  0  0  0
   17.4359   55.2129   10.6903 N   0  0  0  0  0  0  0  0  0  0  0  0
   16.7522   56.2997   11.3900 C   0  0  0  0  0  0  0  0  0  0  0  0
   16.3682   55.6834   12.6656 C   0  0  0  0  0  0  0  0  0  0  0  0
   15.7084   56.2095   13.7507 C   0  0  0  0  0  0  0  0  0  0  0  0
   15.2555   57.6048   13.7533 C   0  0  0  0  0  0  0  0  0  0  0  0
   15.6293   58.6513   14.5583 C   0  0  0  0  0  0  0  0  0  0  0  0
   14.9502   59.8043   14.2253 C   0  0  0  0  0  0  0  0  0  0  0  0
   14.1268   59.4423   13.1703 C   0  0  0  0  0  0  0  0  0  0  0  0
   13.2352   60.2201   12.4610 C   0  0  0  0  0  0  0  0  0  0  0  0
   13.0089   61.5644   12.7047 O   0  0  0  0  0  0  0  0  0  0  0  0
   12.5441   59.6329   11.4709 N   0  0  0  0  0  0  0  0  0  0  0  0
   12.7674   58.3140   11.2329 C   0  0  0  0  0  0  0  0  0  0  0  0
   13.6396   57.5811   11.9373 N   0  0  0  0  0  0  0  0  0  0  0  0
   14.3229   58.1400   12.9081 N   0  0  0  0  0  0  0  0  0  0  0  0
   15.4666   55.3881   14.8568 C   0  0  0  0  0  0  0  0  0  0  0  0
   15.8608   54.0710   14.9082 C   0  0  0  0  0  0  0  0  0  0  0  0
   16.5239   53.5361   13.8223 C   0  0  0  0  0  0  0  0  0  0  0  0
   16.9265   52.1945   13.8512 N   0  0  0  0  0  0  0  0  0  0  0  0
   16.4849   51.3693   14.9351 C   0  0  0  0  0  0  0  0  0  0  0  0
   16.7503   50.0172   14.9007 C   0  0  0  0  0  0  0  0  0  0  0  0
   16.3586   49.1478   15.9030 C   0  0  0  0  0  0  0  0  0  0  0  0
   15.6747   49.7030   16.9643 C   0  0  0  0  0  0  0  0  0  0  0  0
   15.2260   48.8704   18.0448 N   0  0  0  0  0  0  0  0  0  0  0  0
   14.1960   48.9946   19.0536 C   0  0  0  0  0  0  0  0  0  0  0  0
   14.1555   47.4873   19.1123 C   0  0  0  0  0  0  0  0  0  0  0  0
   14.0527   46.9842   20.3930 O   0  0  0  0  0  0  0  0  0  0  0  0
   15.5757   47.5787   18.5986 C   0  0  0  0  0  0  0  0  0  0  0  0
   15.4223   51.0602   16.9737 C   0  0  0  0  0  0  0  0  0  0  0  0
   15.8182   51.8715   15.9834 N   0  0  0  0  0  0  0  0  0  0  0  0
   16.7664   54.3591   12.7150 C   0  0  0  0  0  0  0  0  0  0  0  0
  1  2  2  0
  2  3  1  0
  3  4  1  0
  4  5  1  0
  5  6  2  0
  6  7  1  0
  7  8  2  0
  8  9  1  0
  9 10  2  0
 10 11  1  0
 11 12  1  0
 11 13  2  0
 13 14  1  0
 14 15  2  0
 15 16  1  0
  6 17  1  0
 17 18  2  0
 18 19  1  0
 19 20  1  0
 20 21  1  0
 21 22  2  0
 22 23  1  0
 23 24  2  0
 24 25  1  0
 25 26  1  0
 26 27  1  0
 27 28  1  0
 27 29  1  0
 24 30  1  0
 30 31  2  0
 19 32  2  0
 32  2  1  0
 32  5  1  0
 16  7  1  0
 31 21  1  0
 16 10  1  0
 29 25  1  0
M  END
$$$$
