
     RDKit          3D

 29 33  0  0  0  0  0  0  0  0999 V2000
   16.0835   49.2281   15.8080 O   0  0  0  0  0  0  0  0  0  0  0  0
   16.4433   50.3278   16.3490 C   0  0  0  0  0  0  0  0  0  0  0  0
   16.5121   50.2676   17.7445 N   0  0  0  0  0  0  0  0  0  0  0  0
   16.2612   49.0701   18.5107 C   0  0  0  0  0  0  0  0  0  0  0  0
   16.0661   49.3231   19.9835 C   0  0  0  0  0  0  0  0  0  0  0  0
   14.6714   49.6940   20.3611 C   0  0  0  0  0  0  0  0  0  0  0  0
   13.6866   48.6888   19.8377 C   0  0  0  0  0  0  0  0  0  0  0  0
   13.8104   48.4554   18.3543 C   0  0  0  0  0  0  0  0  0  0  0  0
   15.2339   48.1485   17.9794 C   0  0  0  0  0  0  0  0  0  0  0  0
   15.4879   46.7898   18.6323 C   0  0  0  0  0  0  0  0  0  0  0  0
   15.3934   46.9402   20.1331 C   0  0  0  0  0  0  0  0  0  0  0  0
   15.7186   45.7349   20.7124 O   0  0  0  0  0  0  0  0  0  0  0  0
   13.9791   47.3580   20.5026 C   0  0  0  0  0  0  0  0  0  0  0  0
   16.3268   47.9887   20.6759 C   0  0  0  0  0  0  0  0  0  0  0  0
   16.7335   51.4811   15.5172 C   0  0  0  0  0  0  0  0  0  0  0  0
   17.6510   51.3460   14.4526 C   0  0  0  0  0  0  0  0  0  0  0  0
   18.2029   50.1215   14.2870 F   0  0  0  0  0  0  0  0  0  0  0  0
   17.9717   52.3947   13.6250 C   0  0  0  0  0  0  0  0  0  0  0  0
   17.4058   53.6357   13.8007 C   0  0  0  0  0  0  0  0  0  0  0  0
   17.7044   54.7154   12.9873 O   0  0  0  0  0  0  0  0  0  0  0  0
   17.0483   54.9114   11.7655 C   0  0  0  0  0  0  0  0  0  0  0  0
   17.3971   56.2093   11.1065 C   0  0  0  0  0  0  0  0  0  0  0  0
   16.3772   57.2210   11.2929 N   0  0  0  0  0  0  0  0  0  0  0  0
   16.1095   58.0643   10.1483 C   0  0  0  0  0  0  0  0  0  0  0  0
   14.6646   58.1333   10.6650 C   0  0  0  0  0  0  0  0  0  0  0  0
   15.0145   56.7115   11.1246 C   0  0  0  0  0  0  0  0  0  0  0  0
   16.5134   53.8026   14.8215 C   0  0  0  0  0  0  0  0  0  0  0  0
   16.2000   52.7256   15.6519 C   0  0  0  0  0  0  0  0  0  0  0  0
   15.3138   52.9963   16.6217 F   0  0  0  0  0  0  0  0  0  0  0  0
  1  2  2  0
  2  3  1  0
  3  4  1  0
  4  5  1  0
  5  6  1  0
  6  7  1  0
  7  8  1  0
  8  9  1  0
  9 10  1  0
 10 11  1  0
 11 12  1  0
 11 13  1  0
 11 14  1  0
  2 15  1  0
 15 16  2  0
 16 17  1  0
 16 18  1  0
 18 19  2  0
 19 20  1  0
 20 21  1  0
 21 22  1  0
 22 23  1  0
 23 24  1  0
 24 25  1  0
 25 26  1  0
 19 27  1  0
 27 28  2  0
 28 29  1  0
  9  4  1  0
 28 15  1  0
 14  5  1  0
 26 23  1  0
 13  7  1  0
M  END
$$$$
