
     RDKit          3D

 25 26  0  0  0  0  0  0  0  0999 V2000
   15.8354   45.8740   20.5363 C   0  0  0  0  0  0  0  0  0  0  0  0
   15.2828   46.5002   19.2839 C   0  0  0  0  0  0  0  0  0  0  0  0
   15.2051   47.8883   19.3470 O   0  0  0  0  0  0  0  0  0  0  0  0
   15.7812   48.7638   18.4625 C   0  0  0  0  0  0  0  0  0  0  0  0
   17.1403   48.8279   18.2942 C   0  0  0  0  0  0  0  0  0  0  0  0
   17.7289   49.7192   17.3926 C   0  0  0  0  0  0  0  0  0  0  0  0
   16.9480   50.5529   16.6540 C   0  0  0  0  0  0  0  0  0  0  0  0
   17.4580   51.4782   15.7262 N   0  0  0  0  0  0  0  0  0  0  0  0
   16.7982   52.6193   15.2278 C   0  0  0  0  0  0  0  0  0  0  0  0
   15.6073   52.8305   15.4824 O   0  0  0  0  0  0  0  0  0  0  0  0
   17.6048   53.5751   14.3694 C   0  0  0  0  0  0  0  0  0  0  0  0
   16.8144   53.8213   13.1325 C   0  0  0  0  0  0  0  0  0  0  0  0
   16.3997   55.1769   12.9542 N   0  0  0  0  0  0  0  0  0  0  0  0
   15.1117   55.5553   12.4830 C   0  0  0  0  0  0  0  0  0  0  0  0
   14.3691   54.5946   12.1016 O   0  0  0  0  0  0  0  0  0  0  0  0
   14.6324   56.9278   12.4223 C   0  0  0  0  0  0  0  0  0  0  0  0
   13.4978   57.3649   11.7749 C   0  0  0  0  0  0  0  0  0  0  0  0
   13.3807   58.7146   11.9417 N   0  0  0  0  0  0  0  0  0  0  0  0
   12.3070   59.5555   11.4055 C   0  0  0  0  0  0  0  0  0  0  0  0
   14.4090   59.0853   12.6659 N   0  0  0  0  0  0  0  0  0  0  0  0
   15.1934   58.0317   12.9788 C   0  0  0  0  0  0  0  0  0  0  0  0
   16.3466   58.1553   13.7386 O   0  0  0  0  0  0  0  0  0  0  0  0
   16.8546   59.3623   14.2106 C   0  0  0  0  0  0  0  0  0  0  0  0
   15.5703   50.4775   16.8346 C   0  0  0  0  0  0  0  0  0  0  0  0
   14.9794   49.6105   17.7128 C   0  0  0  0  0  0  0  0  0  0  0  0
  1  2  1  0
  2  3  1  0
  3  4  1  0
  4  5  2  0
  5  6  1  0
  6  7  2  0
  7  8  1  0
  8  9  1  0
  9 10  2  0
  9 11  1  0
 11 12  1  0
 12 13  1  0
 13 14  1  0
 14 15  2  0
 14 16  1  0
 16 17  2  0
 17 18  1  0
 18 19  1  0
 18 20  1  0
 20 21  2  0
 21 22  1  0
 22 23  1  0
  7 24  1  0
 24 25  2  0
 25  4  1  0
 21 16  1  0
M  END
$$$$
