
     RDKit          3D

 35 39  0  0  0  0  0  0  0  0999 V2000
   13.5371   93.9952   63.3221 C   0  0  0  0  0  0  0  0  0  0  0  0
   12.3284   94.7695   63.4452 N   0  0  0  0  0  0  0  0  0  0  0  0
   11.6016   94.9379   62.2636 C   0  0  0  0  0  0  0  0  0  0  0  0
   12.1200   95.9768   61.3439 C   0  0  0  0  0  0  0  0  0  0  0  0
   13.1193   96.6344   61.7065 O   0  0  0  0  0  0  0  0  0  0  0  0
   11.5519   96.2679   60.0804 N   0  0  0  0  0  0  0  0  0  0  0  0
   11.9239   97.3454   59.2380 C   0  0  0  0  0  0  0  0  0  0  0  0
   11.2670   98.5542   59.2313 C   0  0  0  0  0  0  0  0  0  0  0  0
   11.5808   99.6135   58.4150 C   0  0  0  0  0  0  0  0  0  0  0  0
   12.6327   99.4997   57.5141 C   0  0  0  0  0  0  0  0  0  0  0  0
   13.0783  100.4091   56.6416 N   0  0  0  0  0  0  0  0  0  0  0  0
   13.9310  100.2956   55.9130 C   0  0  0  0  0  0  0  0  0  0  0  0
   14.8224  101.2855   54.5834 S   0  0  0  0  0  0  0  0  0  0  0  0
   15.4786  100.1037   53.4213 C   0  0  0  0  0  0  0  0  0  0  0  0
   16.3421  100.6459   52.3817 C   0  0  0  0  0  0  0  0  0  0  0  0
   17.1002  101.6217   52.7082 O   0  0  0  0  0  0  0  0  0  0  0  0
   16.4267  100.1954   51.0741 N   0  0  0  0  0  0  0  0  0  0  0  0
   15.8110   98.8833   50.7429 C   0  0  0  0  0  0  0  0  0  0  0  0
   14.7809   99.1492   49.6993 C   0  0  0  0  0  0  0  0  0  0  0  0
   15.1105  100.1085   48.6333 C   0  0  0  0  0  0  0  0  0  0  0  0
   16.3468  100.8871   48.8082 C   0  0  0  0  0  0  0  0  0  0  0  0
   16.9026  101.6027   47.7577 C   0  0  0  0  0  0  0  0  0  0  0  0
   18.0649  102.3111   47.9562 C   0  0  0  0  0  0  0  0  0  0  0  0
   18.7231  102.3416   49.1929 C   0  0  0  0  0  0  0  0  0  0  0  0
   18.1715  101.6290   50.2401 C   0  0  0  0  0  0  0  0  0  0  0  0
   17.0095  100.9345   50.0041 C   0  0  0  0  0  0  0  0  0  0  0  0
   14.5207   98.5501   56.2562 S   0  0  0  0  0  0  0  0  0  0  0  0
   13.2952   98.3136   57.5061 C   0  0  0  0  0  0  0  0  0  0  0  0
   12.9796   97.2323   58.3350 C   0  0  0  0  0  0  0  0  0  0  0  0
   11.7292   94.7599   64.7080 C   0  0  0  0  0  0  0  0  0  0  0  0
   10.5935   93.7173   64.8020 C   0  0  0  0  0  0  0  0  0  0  0  0
   10.6192   93.0720   66.1667 C   0  0  0  0  0  0  0  0  0  0  0  0
   11.8893   92.3157   66.4518 C   0  0  0  0  0  0  0  0  0  0  0  0
   13.0825   93.0280   65.8169 C   0  0  0  0  0  0  0  0  0  0  0  0
   12.7393   94.4854   65.8011 C   0  0  0  0  0  0  0  0  0  0  0  0
  1  2  1  0
  2  3  1  0
  3  4  1  0
  4  5  2  0
  4  6  1  0
  6  7  1  0
  7  8  2  0
  8  9  1  0
  9 10  2  0
 10 11  1  0
 11 12  2  0
 12 13  1  0
 13 14  1  0
 14 15  1  0
 15 16  2  0
 15 17  1  0
 17 18  1  0
 18 19  1  0
 19 20  1  0
 20 21  1  0
 21 22  2  0
 22 23  1  0
 23 24  2  0
 24 25  1  0
 25 26  2  0
 12 27  1  0
 27 28  1  0
 28 29  2  0
  2 30  1  0
 30 31  1  0
 31 32  1  0
 32 33  1  0
 33 34  1  0
 34 35  1  0
 29  7  1  0
 35 30  1  0
 28 10  1  0
 26 17  1  0
 26 21  1  0
M  END
$$$$
