
     RDKit          3D

 33 36  0  0  0  0  0  0  0  0999 V2000
   10.4843   97.9391   52.0161 C   0  0  0  0  0  0  0  0  0  0  0  0
   11.6757   98.6881   51.6661 N   0  0  0  0  0  0  0  0  0  0  0  0
   12.4506   99.4100   52.5308 C   0  0  0  0  0  0  0  0  0  0  0  0
   13.4882   99.9784   51.8352 C   0  0  0  0  0  0  0  0  0  0  0  0
   14.4924  100.8757   52.4225 C   0  0  0  0  0  0  0  0  0  0  0  0
   15.2768  101.6419   51.5397 C   0  0  0  0  0  0  0  0  0  0  0  0
   16.3027  102.4324   51.9429 C   0  0  0  0  0  0  0  0  0  0  0  0
   16.5717  102.4754   53.2576 N   0  0  0  0  0  0  0  0  0  0  0  0
   15.8451  101.7626   54.1181 C   0  0  0  0  0  0  0  0  0  0  0  0
   14.7736  100.9335   53.7427 C   0  0  0  0  0  0  0  0  0  0  0  0
   14.0304  100.3338   54.8056 C   0  0  0  0  0  0  0  0  0  0  0  0
   14.4655   99.8740   55.9508 C   0  0  0  0  0  0  0  0  0  0  0  0
   13.5415   99.3440   56.9630 C   0  0  0  0  0  0  0  0  0  0  0  0
   12.5122   98.7570   56.5732 O   0  0  0  0  0  0  0  0  0  0  0  0
   13.7724   99.4730   58.3513 N   0  0  0  0  0  0  0  0  0  0  0  0
   13.1129   98.6252   59.3153 C   0  0  0  0  0  0  0  0  0  0  0  0
   12.1563   97.7314   58.8827 C   0  0  0  0  0  0  0  0  0  0  0  0
   11.4933   96.8921   59.7800 C   0  0  0  0  0  0  0  0  0  0  0  0
   11.8034   96.9615   61.1204 C   0  0  0  0  0  0  0  0  0  0  0  0
   11.1201   96.0901   62.0773 C   0  0  0  0  0  0  0  0  0  0  0  0
   11.9862   95.5107   63.0738 N   0  0  0  0  0  0  0  0  0  0  0  0
   11.2766   94.7045   64.0287 C   0  0  0  0  0  0  0  0  0  0  0  0
   12.2485   93.8602   64.8122 C   0  0  0  0  0  0  0  0  0  0  0  0
   11.7579   92.4344   64.8602 C   0  0  0  0  0  0  0  0  0  0  0  0
   12.5260   91.6519   65.7850 N   0  0  0  0  0  0  0  0  0  0  0  0
   13.5927   92.0150   66.4960 C   0  0  0  0  0  0  0  0  0  0  0  0
   14.0145   90.9585   67.2524 C   0  0  0  0  0  0  0  0  0  0  0  0
   13.1660   89.9428   66.9746 N   0  0  0  0  0  0  0  0  0  0  0  0
   12.2687   90.3631   66.0890 C   0  0  0  0  0  0  0  0  0  0  0  0
   12.7624   97.8645   61.5158 C   0  0  0  0  0  0  0  0  0  0  0  0
   13.3937   98.6726   60.6129 N   0  0  0  0  0  0  0  0  0  0  0  0
   13.3334   99.5889   50.5215 C   0  0  0  0  0  0  0  0  0  0  0  0
   12.2275   98.8120   50.4666 N   0  0  0  0  0  0  0  0  0  0  0  0
  1  2  1  0
  2  3  1  0
  3  4  2  0
  4  5  1  0
  5  6  2  0
  6  7  1  0
  7  8  2  0
  8  9  1  0
  9 10  2  0
 10 11  1  0
 11 12  2  0
 12 13  1  0
 13 14  2  0
 13 15  1  0
 15 16  1  0
 16 17  2  0
 17 18  1  0
 18 19  2  0
 19 20  1  0
 20 21  1  0
 21 22  1  0
 22 23  1  0
 23 24  1  0
 24 25  1  0
 25 26  1  0
 26 27  2  0
 27 28  1  0
 28 29  2  0
 19 30  1  0
 30 31  2  0
  4 32  1  0
 32 33  2  0
 33  2  1  0
 10  5  1  0
 31 16  1  0
 29 25  1  0
M  END
$$$$
