
     RDKit          3D

 35 38  0  0  0  0  0  0  0  0999 V2000
   31.6288   82.4329   48.5014 C   0  0  0  0  0  0  0  0  0  0  0  0
   32.2813   82.6484   49.8347 C   0  0  0  0  0  0  0  0  0  0  0  0
   33.6357   82.4744   50.0254 C   0  0  0  0  0  0  0  0  0  0  0  0
   34.1880   82.6847   51.2721 C   0  0  0  0  0  0  0  0  0  0  0  0
   35.6169   82.5073   51.4980 C   0  0  0  0  0  0  0  0  0  0  0  0
   36.2906   82.7107   52.6445 N   0  0  0  0  0  0  0  0  0  0  0  0
   37.5800   82.4556   52.5066 N   0  0  0  0  0  0  0  0  0  0  0  0
   38.6414   82.5471   53.4879 C   0  0  0  0  0  0  0  0  0  0  0  0
   38.3457   83.5299   54.5966 C   0  0  0  0  0  0  0  0  0  0  0  0
   38.9672   81.2482   54.0934 C   0  0  0  0  0  0  0  0  0  0  0  0
   38.3849   80.0930   53.5869 C   0  0  0  0  0  0  0  0  0  0  0  0
   38.6437   78.8405   54.1070 C   0  0  0  0  0  0  0  0  0  0  0  0
   39.5078   78.6943   55.1698 C   0  0  0  0  0  0  0  0  0  0  0  0
   39.8214   77.0884   55.8154 Cl  0  0  0  0  0  0  0  0  0  0  0  0
   40.0983   79.8214   55.6911 C   0  0  0  0  0  0  0  0  0  0  0  0
   40.9432   79.6734   56.7307 F   0  0  0  0  0  0  0  0  0  0  0  0
   39.8298   81.0878   55.1569 C   0  0  0  0  0  0  0  0  0  0  0  0
   37.7554   82.0774   51.2450 C   0  0  0  0  0  0  0  0  0  0  0  0
   36.5486   82.0926   50.5652 C   0  0  0  0  0  0  0  0  0  0  0  0
   36.3868   81.7258   49.1411 C   0  0  0  0  0  0  0  0  0  0  0  0
   37.6423   81.8536   48.4106 N   0  0  0  0  0  0  0  0  0  0  0  0
   37.7707   81.4329   47.0693 C   0  0  0  0  0  0  0  0  0  0  0  0
   36.6842   81.0530   46.5033 O   0  0  0  0  0  0  0  0  0  0  0  0
   39.0000   81.3929   46.2871 C   0  0  0  0  0  0  0  0  0  0  0  0
   40.1058   80.7077   47.0550 C   0  0  0  0  0  0  0  0  0  0  0  0
   38.7837   80.5406   45.0201 C   0  0  0  0  0  0  0  0  0  0  0  0
   39.4518   82.7018   45.8027 C   0  0  0  0  0  0  0  0  0  0  0  0
   40.4946   83.3872   46.4615 N   0  0  0  0  0  0  0  0  0  0  0  0
   38.9161   83.2188   44.8032 O   0  0  0  0  0  0  0  0  0  0  0  0
   38.7586   82.4340   49.0958 C   0  0  0  0  0  0  0  0  0  0  0  0
   38.9309   81.6479   50.4042 C   0  0  0  0  0  0  0  0  0  0  0  0
   33.3624   83.0679   52.3074 C   0  0  0  0  0  0  0  0  0  0  0  0
   31.9913   83.2440   52.1143 C   0  0  0  0  0  0  0  0  0  0  0  0
   31.4442   83.0331   50.8690 C   0  0  0  0  0  0  0  0  0  0  0  0
   29.7263   83.2569   50.6389 Cl  0  0  0  0  0  0  0  0  0  0  0  0
  1  2  1  0
  2  3  2  0
  3  4  1  0
  4  5  1  0
  5  6  2  0
  6  7  1  0
  7  8  1  0
  8  9  1  0
  8 10  1  0
 10 11  2  0
 11 12  1  0
 12 13  2  0
 13 14  1  0
 13 15  1  0
 15 16  1  0
 15 17  2  0
  7 18  1  0
 18 19  2  0
 19 20  1  0
 20 21  1  0
 21 22  1  0
 22 23  2  0
 22 24  1  0
 24 25  1  0
 24 26  1  0
 24 27  1  0
 27 28  1  0
 27 29  2  0
 21 30  1  0
 30 31  1  0
  4 32  2  0
 32 33  1  0
 33 34  2  0
 34 35  1  0
 34  2  1  0
 19  5  1  0
 17 10  1  0
 31 18  1  0
M  END
$$$$
