
     RDKit          3D

 20 22  0  0  0  0  0  0  0  0999 V2000
   36.5070   79.7133   53.3541 C   0  0  0  0  0  0  0  0  0  0  0  0
   36.6439   81.0663   53.4221 O   0  0  0  0  0  0  0  0  0  0  0  0
   36.8771   81.7380   52.2618 C   0  0  0  0  0  0  0  0  0  0  0  0
   38.1004   81.2693   51.5120 C   0  0  0  0  0  0  0  0  0  0  0  0
   37.1578   83.2048   52.6200 C   0  0  0  0  0  0  0  0  0  0  0  0
   35.7398   81.7633   51.3099 C   0  0  0  0  0  0  0  0  0  0  0  0
   35.7980   81.5742   49.9579 N   0  0  0  0  0  0  0  0  0  0  0  0
   34.5903   81.6686   49.4547 O   0  0  0  0  0  0  0  0  0  0  0  0
   33.7354   81.9082   50.3866 C   0  0  0  0  0  0  0  0  0  0  0  0
   32.3036   82.0809   50.2427 C   0  0  0  0  0  0  0  0  0  0  0  0
   31.6098   82.1141   49.0255 C   0  0  0  0  0  0  0  0  0  0  0  0
   30.3250   82.2876   49.3179 N   0  0  0  0  0  0  0  0  0  0  0  0
   30.1570   82.3672   50.6498 C   0  0  0  0  0  0  0  0  0  0  0  0
   29.0057   82.5432   51.3787 C   0  0  0  0  0  0  0  0  0  0  0  0
   29.1000   82.5924   52.7661 C   0  0  0  0  0  0  0  0  0  0  0  0
   30.3038   82.4710   53.4263 C   0  0  0  0  0  0  0  0  0  0  0  0
   31.4337   82.2947   52.6307 C   0  0  0  0  0  0  0  0  0  0  0  0
   32.6100   82.1749   53.2510 F   0  0  0  0  0  0  0  0  0  0  0  0
   31.4019   82.2389   51.2721 C   0  0  0  0  0  0  0  0  0  0  0  0
   34.4314   81.9702   51.5447 N   0  0  0  0  0  0  0  0  0  0  0  0
  1  2  1  0
  2  3  1  0
  3  4  1  0
  3  5  1  0
  3  6  1  0
  6  7  2  0
  7  8  1  0
  8  9  1  0
  9 10  1  0
 10 11  2  0
 11 12  1  0
 12 13  1  0
 13 14  2  0
 14 15  1  0
 15 16  2  0
 16 17  1  0
 17 18  1  0
 17 19  2  0
  9 20  2  0
 20  6  1  0
 19 10  1  0
 19 13  1  0
M  END
$$$$
