
     RDKit          3D

 23 25  0  0  0  0  0  0  0  0999 V2000
   12.5462   97.2851   59.6714 O   0  0  0  0  0  0  0  0  0  0  0  0
   11.3252   97.5242   59.9164 C   0  0  0  0  0  0  0  0  0  0  0  0
   10.8045   96.9757   61.1169 N   0  0  0  0  0  0  0  0  0  0  0  0
   11.5062   95.9502   61.8017 C   0  0  0  0  0  0  0  0  0  0  0  0
   12.8703   95.9817   61.9843 C   0  0  0  0  0  0  0  0  0  0  0  0
   13.4564   94.9850   62.6359 N   0  0  0  0  0  0  0  0  0  0  0  0
   12.7886   93.9246   63.1393 C   0  0  0  0  0  0  0  0  0  0  0  0
   13.4197   92.8636   63.8340 N   0  0  0  0  0  0  0  0  0  0  0  0
   12.5941   91.7066   64.1519 C   0  0  0  0  0  0  0  0  0  0  0  0
   12.9134   91.3892   65.6190 C   0  0  0  0  0  0  0  0  0  0  0  0
   14.3495   90.9806   65.6594 C   0  0  0  0  0  0  0  0  0  0  0  0
   15.3087   92.0198   65.1921 C   0  0  0  0  0  0  0  0  0  0  0  0
   14.8025   92.9803   64.1793 C   0  0  0  0  0  0  0  0  0  0  0  0
   11.4601   93.9106   62.9520 N   0  0  0  0  0  0  0  0  0  0  0  0
   10.7944   94.8726   62.3084 C   0  0  0  0  0  0  0  0  0  0  0  0
   10.5191   98.3208   59.0016 C   0  0  0  0  0  0  0  0  0  0  0  0
    9.3632   97.9596   58.6777 O   0  0  0  0  0  0  0  0  0  0  0  0
   11.0246   99.5276   58.4542 N   0  0  0  0  0  0  0  0  0  0  0  0
   10.2066  100.4005   57.6427 C   0  0  0  0  0  0  0  0  0  0  0  0
   10.9487  100.6184   56.3411 C   0  0  0  0  0  0  0  0  0  0  0  0
   12.2080  101.3801   56.6286 C   0  0  0  0  0  0  0  0  0  0  0  0
   12.5937  101.3132   58.0730 C   0  0  0  0  0  0  0  0  0  0  0  0
   12.4016   99.9470   58.6856 C   0  0  0  0  0  0  0  0  0  0  0  0
  1  2  2  0
  2  3  1  0
  3  4  1  0
  4  5  2  0
  5  6  1  0
  6  7  2  0
  7  8  1  0
  8  9  1  0
  9 10  1  0
 10 11  1  0
 11 12  1  0
 12 13  1  0
  7 14  1  0
 14 15  2  0
  2 16  1  0
 16 17  2  0
 16 18  1  0
 18 19  1  0
 19 20  1  0
 20 21  1  0
 21 22  1  0
 22 23  1  0
 15  4  1  0
 23 18  1  0
 13  8  1  0
M  END
$$$$
