
     RDKit          3D

 21 23  0  0  0  0  0  0  0  0999 V2000
   18.6346   46.3641   19.5338 C   0  0  0  0  0  0  0  0  0  0  0  0
   18.0139   47.0719   18.3260 C   0  0  0  0  0  0  0  0  0  0  0  0
   18.5415   46.9698   17.0581 C   0  0  0  0  0  0  0  0  0  0  0  0
   17.4162   47.9898   16.0861 S   0  0  0  0  0  0  0  0  0  0  0  0
   16.3470   48.4216   17.6248 C   0  0  0  0  0  0  0  0  0  0  0  0
   15.2089   49.3123   17.2859 C   0  0  0  0  0  0  0  0  0  0  0  0
   15.7710   50.6579   17.1711 N   0  0  0  0  0  0  0  0  0  0  0  0
   15.5478   51.4578   16.0207 C   0  0  0  0  0  0  0  0  0  0  0  0
   14.6727   51.0412   15.2073 O   0  0  0  0  0  0  0  0  0  0  0  0
   16.3108   52.7307   15.7833 C   0  0  0  0  0  0  0  0  0  0  0  0
   15.7964   53.2958   14.6262 O   0  0  0  0  0  0  0  0  0  0  0  0
   16.7910   53.1885   13.6467 C   0  0  0  0  0  0  0  0  0  0  0  0
   16.9306   54.5117   12.9708 C   0  0  0  0  0  0  0  0  0  0  0  0
   17.8843   54.4046   11.8255 C   0  0  0  0  0  0  0  0  0  0  0  0
   17.1523   55.2206   10.7521 C   0  0  0  0  0  0  0  0  0  0  0  0
   15.7082   54.8752   11.1351 C   0  0  0  0  0  0  0  0  0  0  0  0
   15.7222   54.9476   12.5039 O   0  0  0  0  0  0  0  0  0  0  0  0
   14.1296   49.2680   18.3441 C   0  0  0  0  0  0  0  0  0  0  0  0
   13.1119   50.3883   18.2113 C   0  0  0  0  0  0  0  0  0  0  0  0
   12.7266   48.9907   17.8847 C   0  0  0  0  0  0  0  0  0  0  0  0
   16.9434   47.8222   18.4097 N   0  0  0  0  0  0  0  0  0  0  0  0
  1  2  1  0
  2  3  2  0
  3  4  1  0
  4  5  1  0
  5  6  1  0
  6  7  1  0
  7  8  1  0
  8  9  2  0
  8 10  1  0
 10 11  1  0
 11 12  1  0
 12 13  1  0
 13 14  1  0
 14 15  1  0
 15 16  1  0
 16 17  1  0
  6 18  1  0
 18 19  1  0
 19 20  1  0
  5 21  2  0
 21  2  1  0
 17 13  1  0
 20 18  1  0
M  END
$$$$
