
     RDKit          3D

 33 34  0  0  0  0  0  0  0  0999 V2000
   12.7936   90.1871   66.0327 C   0  0  0  0  0  0  0  0  0  0  0  0
   12.9827   91.1967   64.9606 C   0  0  0  0  0  0  0  0  0  0  0  0
   14.2252   91.5695   64.4848 C   0  0  0  0  0  0  0  0  0  0  0  0
   14.4095   92.5043   63.4911 C   0  0  0  0  0  0  0  0  0  0  0  0
   13.2885   93.1161   62.9252 C   0  0  0  0  0  0  0  0  0  0  0  0
   13.4803   94.0861   61.8531 C   0  0  0  0  0  0  0  0  0  0  0  0
   13.6702   95.5162   62.2887 C   0  0  2  0  0  0  0  0  0  0  0  0
   12.3964   96.1978   62.2582 N   0  0  0  0  0  0  0  0  0  0  0  0
   11.2369   95.6830   61.6565 C   0  0  0  0  0  0  0  0  0  0  0  0
   11.2115   94.4517   61.3732 O   0  0  0  0  0  0  0  0  0  0  0  0
   10.0389   96.4915   61.3314 C   0  0  2  0  0  0  0  0  0  0  0  0
    8.7750   95.6441   61.3618 C   0  0  0  0  0  0  0  0  0  0  0  0
    7.6940   96.3686   60.6396 C   0  0  0  0  0  0  0  0  0  0  0  0
    6.4081   95.6128   60.6284 C   0  0  0  0  0  0  0  0  0  0  0  0
    6.1969   94.7362   59.5821 C   0  0  0  0  0  0  0  0  0  0  0  0
    5.0255   93.9913   59.4931 C   0  0  0  0  0  0  0  0  0  0  0  0
    4.0505   94.1187   60.4565 C   0  0  0  0  0  0  0  0  0  0  0  0
    4.2763   94.9975   61.4941 C   0  0  0  0  0  0  0  0  0  0  0  0
    5.4329   95.7415   61.5937 C   0  0  0  0  0  0  0  0  0  0  0  0
   10.2035   97.2376   60.1287 N   0  0  0  0  0  0  0  0  0  0  0  0
   10.8225   98.4964   60.0899 C   0  0  0  0  0  0  0  0  0  0  0  0
   11.0619   99.0911   61.1591 O   0  0  0  0  0  0  0  0  0  0  0  0
   11.1910   99.1301   58.8994 O   0  0  0  0  0  0  0  0  0  0  0  0
   10.8070  100.4920   58.6879 C   0  0  0  0  0  0  0  0  0  0  0  0
   11.2782  100.8801   57.3027 C   0  0  0  0  0  0  0  0  0  0  0  0
   11.4387  101.3946   59.7365 C   0  0  0  0  0  0  0  0  0  0  0  0
    9.3237  100.6673   58.7636 C   0  0  0  0  0  0  0  0  0  0  0  0
   14.7064   96.2271   61.3370 B   0  0  0  0  0  0  0  0  0  0  0  0
   16.1273   95.8706   61.3209 O   0  0  0  0  0  0  0  0  0  0  0  0
   14.3328   97.5160   60.7473 O   0  0  0  0  0  0  0  0  0  0  0  0
   12.0376   92.7609   63.3845 C   0  0  0  0  0  0  0  0  0  0  0  0
   10.8877   93.3271   62.9089 F   0  0  0  0  0  0  0  0  0  0  0  0
   11.8816   91.8139   64.3885 C   0  0  0  0  0  0  0  0  0  0  0  0
  1  2  1  0
  2  3  2  0
  3  4  1  0
  4  5  2  0
  5  6  1  0
  7  6  1  6
  7  8  1  0
  8  9  1  0
  9 10  2  0
  9 11  1  0
 11 12  1  6
 12 13  1  0
 13 14  1  0
 14 15  2  0
 15 16  1  0
 16 17  2  0
 17 18  1  0
 18 19  2  0
 11 20  1  0
 20 21  1  0
 21 22  2  0
 21 23  1  0
 23 24  1  0
 24 25  1  0
 24 26  1  0
 24 27  1  0
  7 28  1  0
 28 29  1  0
 28 30  1  0
  5 31  1  0
 31 32  1  0
 31 33  2  0
 33  2  1  0
 19 14  1  0
M  END
$$$$
