
     RDKit          3D

 29 31  0  0  0  0  0  0  0  0999 V2000
   13.0683   62.1322   10.5316 C   0  0  0  0  0  0  0  0  0  0  0  0
   13.2875   61.5580   11.7573 O   0  0  0  0  0  0  0  0  0  0  0  0
   12.0928   61.1809   12.3342 C   0  0  0  0  0  0  0  0  0  0  0  0
   12.2009   60.1892   13.4398 C   0  0  0  0  0  0  0  0  0  0  0  0
   12.2382   58.8658   12.8094 N   0  0  0  0  0  0  0  0  0  0  0  0
   11.1674   58.2034   12.3894 N   0  0  0  0  0  0  0  0  0  0  0  0
   11.5481   57.0292   11.8583 C   0  0  0  0  0  0  0  0  0  0  0  0
   12.9192   56.9940   11.9700 C   0  0  0  0  0  0  0  0  0  0  0  0
   13.3515   58.1718   12.5793 C   0  0  0  0  0  0  0  0  0  0  0  0
   14.6628   58.5767   12.9046 N   0  0  0  0  0  0  0  0  0  0  0  0
   15.7300   57.7685   12.4079 C   0  0  0  0  0  0  0  0  0  0  0  0
   16.6971   58.2282   11.6257 N   0  0  0  0  0  0  0  0  0  0  0  0
   17.6481   57.3768   11.2034 C   0  0  0  0  0  0  0  0  0  0  0  0
   17.6214   56.0246   11.5812 C   0  0  0  0  0  0  0  0  0  0  0  0
   18.8614   54.9362   11.0453 Cl  0  0  0  0  0  0  0  0  0  0  0  0
   16.6153   55.5604   12.3906 C   0  0  0  0  0  0  0  0  0  0  0  0
   16.4500   54.2205   12.8198 N   0  0  0  0  0  0  0  0  0  0  0  0
   17.5154   53.2356   12.5707 C   0  0  0  0  0  0  0  0  0  0  0  0
   18.0746   52.7500   13.8683 C   0  0  0  0  0  0  0  0  0  0  0  0
   16.9814   52.5505   14.9146 C   0  0  0  0  0  0  0  0  0  0  0  0
   15.6948   52.3701   14.1412 C   0  0  1  0  0  0  0  0  0  0  0  0
   14.6467   51.8123   14.9430 N   0  0  0  0  0  0  0  0  0  0  0  0
   14.9074   50.7876   15.8845 C   0  0  0  0  0  0  0  0  0  0  0  0
   15.6844   49.8697   15.5211 O   0  0  0  0  0  0  0  0  0  0  0  0
   14.2964   50.7816   17.2509 C   0  0  2  0  0  0  0  0  0  0  0  0
   13.4345   49.5669   17.4678 C   0  0  0  0  0  0  0  0  0  0  0  0
   13.6097   51.9655   17.4932 O   0  0  0  0  0  0  0  0  0  0  0  0
   15.2986   53.7056   13.5282 C   0  0  0  0  0  0  0  0  0  0  0  0
   15.6984   56.4645   12.7762 N   0  0  0  0  0  0  0  0  0  0  0  0
  1  2  1  0
  2  3  1  0
  3  4  1  0
  4  5  1  0
  5  6  1  0
  6  7  2  0
  7  8  1  0
  8  9  2  0
  9 10  1  0
 10 11  1  0
 11 12  2  0
 12 13  1  0
 13 14  2  0
 14 15  1  0
 14 16  1  0
 16 17  1  0
 17 18  1  0
 18 19  1  0
 19 20  1  0
 20 21  1  0
 21 22  1  1
 22 23  1  0
 23 24  2  0
 23 25  1  0
 25 26  1  6
 25 27  1  0
 21 28  1  0
 16 29  2  0
  9  5  1  0
 29 11  1  0
 28 17  1  0
M  END
$$$$
