
     RDKit          3D

 30 33  0  0  0  0  0  0  0  0999 V2000
   17.0691   49.5205   21.3756 C   0  0  0  0  0  0  0  0  0  0  0  0
   15.7875   49.3356   20.6352 C   0  0  0  0  0  0  0  0  0  0  0  0
   15.6829   48.1071   19.9107 N   0  0  0  0  0  4  0  0  0  0  0  0
   16.6066   47.1476   20.4969 C   0  0  0  0  0  0  0  0  0  0  0  0
   14.2989   47.6506   20.0265 C   0  0  0  0  0  0  0  0  0  0  0  0
   13.4038   48.7791   20.4258 C   0  0  0  0  0  0  0  0  0  0  0  0
   16.0669   48.2679   18.5273 C   0  0  0  0  0  0  0  0  0  0  0  0
   14.9973   48.9054   17.6814 C   0  0  0  0  0  0  0  0  0  0  0  0
   15.6056   49.2166   16.3350 C   0  0  0  0  0  0  0  0  0  0  0  0
   16.2905   50.4888   16.3177 N   0  0  0  0  0  0  0  0  0  0  0  0
   15.8912   51.6093   15.5459 C   0  0  0  0  0  0  0  0  0  0  0  0
   14.5670   51.8898   15.3184 C   0  0  0  0  0  0  0  0  0  0  0  0
   14.2070   52.9691   14.5466 C   0  0  0  0  0  0  0  0  0  0  0  0
   15.1927   53.7814   13.9929 C   0  0  0  0  0  0  0  0  0  0  0  0
   14.7615   54.9131   13.1957 C   0  0  0  0  0  0  0  0  0  0  0  0
   13.8562   54.8637   12.1676 C   0  0  0  0  0  0  0  0  0  0  0  0
   13.4841   56.0123   11.4611 C   0  0  0  0  0  0  0  0  0  0  0  0
   14.0225   57.2245   11.7843 C   0  0  0  0  0  0  0  0  0  0  0  0
   13.8525   58.4450   11.2922 O   0  0  0  0  0  0  0  0  0  0  0  0
   14.6139   59.2634   11.9672 C   0  0  0  0  0  0  0  0  0  0  0  0
   15.2933   58.5960   12.9094 N   0  0  0  0  0  0  0  0  0  0  0  0
   14.9283   57.3048   12.8046 C   0  0  0  0  0  0  0  0  0  0  0  0
   15.2916   56.1720   13.4975 C   0  0  0  0  0  0  0  0  0  0  0  0
   16.5258   53.5242   14.2034 C   0  0  0  0  0  0  0  0  0  0  0  0
   16.8579   52.4289   14.9855 C   0  0  0  0  0  0  0  0  0  0  0  0
   18.3081   52.3772   15.0254 C   0  0  0  0  0  0  0  0  0  0  0  0
   18.9976   51.5137   15.6448 O   0  0  0  0  0  0  0  0  0  0  0  0
   18.8242   53.4626   14.2496 N   0  0  0  0  0  0  0  0  0  0  0  0
   20.2263   53.7430   14.0276 C   0  0  0  0  0  0  0  0  0  0  0  0
   17.7331   54.2398   13.7190 C   0  0  0  0  0  0  0  0  0  0  0  0
  1  2  1  0
  2  3  1  0
  3  4  1  0
  3  5  1  0
  5  6  1  0
  3  7  1  0
  7  8  1  0
  8  9  1  0
  9 10  1  0
 10 11  1  0
 11 12  2  0
 12 13  1  0
 13 14  2  0
 14 15  1  0
 15 16  2  0
 16 17  1  0
 17 18  2  0
 18 19  1  0
 19 20  1  0
 20 21  2  0
 21 22  1  0
 22 23  2  0
 14 24  1  0
 24 25  2  0
 25 26  1  0
 26 27  2  0
 26 28  1  0
 28 29  1  0
 28 30  1  0
 25 11  1  0
 23 15  1  0
 30 24  1  0
 22 18  1  0
M  CHG  1   3   1
M  END
$$$$
