
     RDKit          3D

 27 28  0  0  0  0  0  0  0  0999 V2000
    7.9844   91.9217   63.9376 C   0  0  0  0  0  0  0  0  0  0  0  0
    7.8132   92.9627   63.0095 O   0  0  0  0  0  0  0  0  0  0  0  0
    8.5799   94.0464   63.4781 C   0  0  0  0  0  0  0  0  0  0  0  0
    7.9630   95.3522   63.0566 C   0  0  0  0  0  0  0  0  0  0  0  0
    8.0436   95.4890   61.6295 N   0  0  0  0  0  0  0  0  0  0  0  0
    9.2285   95.9693   60.9743 C   0  0  0  0  0  0  0  0  0  0  0  0
    9.1370   96.8878   60.0285 N   0  0  0  0  0  0  0  0  0  0  0  0
   10.2133   97.3558   59.3988 C   0  0  0  0  0  0  0  0  0  0  0  0
   11.4691   96.8683   59.7439 C   0  0  0  0  0  0  0  0  0  0  0  0
   12.6141   97.3015   58.9808 C   0  0  0  0  0  0  0  0  0  0  0  0
   13.5277   96.4327   58.7498 O   0  0  0  0  0  0  0  0  0  0  0  0
   12.8796   98.5701   58.4458 N   0  0  0  0  0  0  0  0  0  0  0  0
   11.8301   99.6048   58.5959 C   0  0  0  0  0  0  0  0  0  0  0  0
   14.0325   98.9839   57.7182 C   0  0  0  0  0  0  0  0  0  0  0  0
   11.5942   95.9120   60.7268 C   0  0  0  0  0  0  0  0  0  0  0  0
   12.8170   95.3939   61.1904 N   0  0  0  0  0  0  0  0  0  0  0  0
   12.8699   94.2677   62.1181 C   0  0  0  0  0  0  0  0  0  0  0  0
   12.4019   94.6855   63.4661 C   0  0  0  0  0  0  0  0  0  0  0  0
   13.4277   94.6237   64.5569 C   0  0  0  0  0  0  0  0  0  0  0  0
   12.6788   94.7558   65.8819 C   0  0  0  0  0  0  0  0  0  0  0  0
   14.4037   95.7785   64.4939 C   0  0  0  0  0  0  0  0  0  0  0  0
   14.1632   93.4017   64.6153 N   0  0  0  0  0  0  0  0  0  0  0  0
   14.5438   92.8546   63.3556 C   0  0  0  0  0  0  0  0  0  0  0  0
   13.7315   91.5960   63.1228 C   0  0  0  0  0  0  0  0  0  0  0  0
   16.0035   92.4505   63.2853 C   0  0  0  0  0  0  0  0  0  0  0  0
   14.2760   93.7768   62.1934 C   0  0  0  0  0  0  0  0  0  0  0  0
   10.4244   95.4955   61.3125 N   0  0  0  0  0  0  0  0  0  0  0  0
  1  2  1  0
  2  3  1  0
  3  4  1  0
  4  5  1  0
  5  6  1  0
  6  7  2  0
  7  8  1  0
  8  9  2  0
  9 10  1  0
 10 11  2  0
 10 12  1  0
 12 13  1  0
 12 14  1  0
  9 15  1  0
 15 16  1  0
 16 17  1  0
 17 18  1  0
 18 19  1  0
 19 20  1  0
 19 21  1  0
 19 22  1  0
 22 23  1  0
 23 24  1  0
 23 25  1  0
 23 26  1  0
 15 27  2  0
 27  6  1  0
 26 17  1  0
M  END
$$$$
