
     RDKit          3D

 19 21  0  0  0  0  0  0  0  0999 V2000
    9.9419   88.8877   66.7516 C   0  0  0  0  0  0  0  0  0  0  0  0
    9.7337   89.4043   65.4122 N   0  0  0  0  0  0  0  0  0  0  0  0
    9.8054   90.8458   65.4833 C   0  0  0  0  0  0  0  0  0  0  0  0
    8.7935   91.5088   64.5719 C   0  0  0  0  0  0  0  0  0  0  0  0
    9.3633   92.9332   64.5359 C   0  0  0  0  0  0  0  0  0  0  0  0
   10.7738   92.6359   64.3085 N   0  0  0  0  0  0  0  0  0  0  0  0
   11.6393   93.4671   63.5518 C   0  0  0  0  0  0  0  0  0  0  0  0
   13.0115   93.3106   63.6076 C   0  0  0  0  0  0  0  0  0  0  0  0
   13.8375   94.1133   62.8775 C   0  0  0  0  0  0  0  0  0  0  0  0
   15.2930   93.9594   62.9271 C   0  0  0  0  0  0  0  0  0  0  0  0
   15.9315   94.8817   63.9415 C   0  0  0  0  0  0  0  0  0  0  0  0
   15.7016   92.5493   63.2901 C   0  0  0  0  0  0  0  0  0  0  0  0
   13.3112   95.0847   62.0800 N   0  0  0  0  0  0  0  0  0  0  0  0
   13.8170   95.9936   61.2778 N   0  0  0  0  0  0  0  0  0  0  0  0
   12.8633   96.7371   60.6987 C   0  0  0  0  0  0  0  0  0  0  0  0
   11.6943   96.2436   61.1849 N   0  0  0  0  0  0  0  0  0  0  0  0
   11.9869   95.2354   62.0265 C   0  0  0  0  0  0  0  0  0  0  0  0
   11.1775   94.4367   62.7523 N   0  0  0  0  0  0  0  0  0  0  0  0
   11.1093   91.3896   64.9698 C   0  0  0  0  0  0  0  0  0  0  0  0
  1  2  1  0
  2  3  1  0
  3  4  1  0
  4  5  1  0
  5  6  1  0
  6  7  1  0
  7  8  1  0
  8  9  2  0
  9 10  1  0
 10 11  1  0
 10 12  1  0
  9 13  1  0
 13 14  1  0
 14 15  2  0
 15 16  1  0
 16 17  2  0
 17 18  1  0
  6 19  1  0
 19  3  1  0
 18  7  2  0
 17 13  1  0
M  END
$$$$
