
     RDKit          3D

 26 29  0  0  0  0  0  0  0  0999 V2000
   17.6475   46.2981   19.1001 C   0  0  0  0  0  0  0  0  0  0  0  0
   17.4435   47.4737   19.9920 C   0  0  0  0  0  0  0  0  0  0  0  0
   16.4390   47.1305   21.0439 C   0  0  0  0  0  0  0  0  0  0  0  0
   15.1745   47.4919   20.9960 C   0  0  0  0  0  0  0  0  0  0  0  0
   14.5539   48.2945   19.8924 C   0  0  0  0  0  0  0  0  0  0  0  0
   15.5185   48.1577   18.7428 C   0  0  0  0  0  0  0  0  0  0  0  0
   16.8466   48.6665   19.2501 C   0  0  0  0  0  0  0  0  0  0  0  0
   17.7608   49.2215   18.2385 C   0  0  0  0  0  0  0  0  0  0  0  0
   17.1660   49.9445   17.0734 C   0  0  0  0  0  0  0  0  0  0  0  0
   15.6834   50.1691   17.2040 C   0  0  0  0  0  0  0  0  0  0  0  0
   15.3608   51.1744   18.2710 C   0  0  0  0  0  0  0  0  0  0  0  0
   15.1901   48.7569   17.4861 C   0  0  0  0  0  0  0  0  0  0  0  0
   13.7768   48.8026   16.9884 C   0  0  0  0  0  0  0  0  0  0  0  0
   14.1466   49.2773   15.5538 C   0  0  0  0  0  0  0  0  0  0  0  0
   14.9142   50.5356   15.9933 C   0  0  0  0  0  0  0  0  0  0  0  0
   13.7800   51.3228   16.4217 O   0  0  0  0  0  0  0  0  0  0  0  0
   15.5091   51.3109   14.9230 C   0  0  0  0  0  0  0  0  0  0  0  0
   16.9041   51.1747   14.8740 O   0  0  0  0  0  0  0  0  0  0  0  0
   14.9748   51.2432   13.5422 C   0  0  0  0  0  0  0  0  0  0  0  0
   16.0221   51.0407   12.5956 O   0  0  0  0  0  0  0  0  0  0  0  0
   16.8854   46.3429   22.2195 C   0  0  0  0  0  0  0  0  0  0  0  0
   18.2143   45.7154   21.9866 C   0  0  0  0  0  0  0  0  0  0  0  0
   18.5871   45.1056   23.2043 O   0  0  0  0  0  0  0  0  0  0  0  0
   19.2165   46.7259   21.5451 C   0  0  0  0  0  0  0  0  0  0  0  0
   18.7060   47.8385   20.7065 C   0  0  0  0  0  0  0  0  0  0  0  0
   18.5690   48.9769   21.4801 O   0  0  0  0  0  0  0  0  0  0  0  0
  1  2  1  0
  2  3  1  0
  3  4  2  0
  4  5  1  0
  5  6  1  0
  6  7  1  0
  7  8  1  0
  8  9  1  0
  9 10  1  0
 10 11  1  0
 10 12  1  0
 12 13  1  0
 13 14  1  0
 14 15  1  0
 15 16  1  0
 15 17  1  0
 17 18  1  0
 17 19  1  0
 19 20  1  0
  3 21  1  0
 21 22  1  0
 22 23  1  0
 22 24  1  0
 24 25  1  0
 25 26  1  0
  7  2  1  0
 15 10  1  0
 25  2  1  0
 12  6  1  0
M  END
$$$$
