
     RDKit          3D

 21 23  0  0  0  0  0  0  0  0999 V2000
   14.1520   46.3867   18.1874 C   0  0  0  0  0  0  0  0  0  0  0  0
   14.6415   47.5281   19.0390 C   0  0  0  0  0  0  0  0  0  0  0  0
   15.0386   48.6388   18.1461 C   0  0  0  0  0  0  0  0  0  0  0  0
   16.3378   48.6981   17.7039 C   0  0  0  0  0  0  0  0  0  0  0  0
   16.7645   49.7188   16.8638 C   0  0  0  0  0  0  0  0  0  0  0  0
   15.9038   50.7048   16.4452 C   0  0  0  0  0  0  0  0  0  0  0  0
   16.3444   51.7897   15.5563 C   0  0  0  0  0  0  0  0  0  0  0  0
   17.3348   51.5569   14.5511 C   0  0  0  0  0  0  0  0  0  0  0  0
   17.4903   53.1233   13.7974 S   0  0  0  0  0  0  0  0  0  0  0  0
   16.2046   53.9643   14.9020 C   0  0  0  0  0  0  0  0  0  0  0  0
   15.9295   55.3265   14.6992 N   0  0  0  0  0  0  0  0  0  0  0  0
   15.0365   55.8874   13.7725 C   0  0  0  0  0  0  0  0  0  0  0  0
   14.1465   55.2161   12.9774 C   0  0  0  0  0  0  0  0  0  0  0  0
   13.2776   55.8543   12.0985 C   0  0  0  0  0  0  0  0  0  0  0  0
   13.3080   57.2240   12.0177 C   0  0  0  0  0  0  0  0  0  0  0  0
   12.4130   57.8932   11.1116 N   0  0  0  0  0  0  0  0  0  0  0  0
   14.1853   57.9412   12.7960 C   0  0  0  0  0  0  0  0  0  0  0  0
   15.0305   57.2829   13.6545 C   0  0  0  0  0  0  0  0  0  0  0  0
   15.9031   52.9929   15.5954 N   0  0  0  0  0  0  0  0  0  0  0  0
   14.6055   50.6232   16.9026 C   0  0  0  0  0  0  0  0  0  0  0  0
   14.1656   49.6133   17.7393 C   0  0  0  0  0  0  0  0  0  0  0  0
  1  2  1  0
  2  3  1  0
  3  4  2  0
  4  5  1  0
  5  6  2  0
  6  7  1  0
  7  8  2  0
  8  9  1  0
  9 10  1  0
 10 11  1  0
 11 12  1  0
 12 13  2  0
 13 14  1  0
 14 15  2  0
 15 16  1  0
 15 17  1  0
 17 18  2  0
 10 19  2  0
  6 20  1  0
 20 21  2  0
 21  3  1  0
 19  7  1  0
 18 12  1  0
M  END
$$$$
