
     RDKit          3D

 23 25  0  0  0  0  0  0  0  0999 V2000
   11.6292  102.2435   58.0197 C   0  0  0  0  0  0  0  0  0  0  0  0
   11.7431  100.7848   57.7629 C   0  0  0  0  0  0  0  0  0  0  0  0
   11.9549  100.2979   56.4905 C   0  0  0  0  0  0  0  0  0  0  0  0
   12.0534   98.9235   56.3097 C   0  0  0  0  0  0  0  0  0  0  0  0
   11.9432   98.0697   57.3674 N   0  0  0  0  0  0  0  0  0  0  0  0
   11.7369   98.5229   58.6143 C   0  0  0  0  0  0  0  0  0  0  0  0
   11.6247   97.6180   59.7050 N   0  0  0  0  0  0  0  0  0  0  0  0
   12.3214   97.8319   60.9253 C   0  0  0  0  0  0  0  0  0  0  0  0
   12.7448   99.0004   61.1884 O   0  0  0  0  0  0  0  0  0  0  0  0
   12.5393   96.7033   61.8575 C   0  0  0  0  0  0  0  0  0  0  0  0
   14.0126   96.4866   62.1434 C   0  0  0  0  0  0  0  0  0  0  0  0
   14.2730   94.9792   62.0655 C   0  0  0  0  0  0  0  0  0  0  0  0
   13.2604   94.3534   62.9182 N   0  0  0  0  0  0  0  0  0  0  0  0
   13.6457   93.8176   64.1581 C   0  0  0  0  0  0  0  0  0  0  0  0
   14.6943   94.3818   64.6745 O   0  0  0  0  0  0  0  0  0  0  0  0
   13.0167   92.7624   64.8637 N   0  0  0  0  0  0  0  0  0  0  0  0
   11.8681   92.0513   64.3649 C   0  0  0  0  0  0  0  0  0  0  0  0
   11.0382   91.8757   65.6178 C   0  0  0  0  0  0  0  0  0  0  0  0
   12.1553   91.4427   66.5831 C   0  0  0  0  0  0  0  0  0  0  0  0
   13.3692   92.2294   66.1283 C   0  0  0  0  0  0  0  0  0  0  0  0
   11.9178   94.3612   62.3804 C   0  0  0  0  0  0  0  0  0  0  0  0
   11.9044   95.4653   61.3042 C   0  0  0  0  0  0  0  0  0  0  0  0
   11.6348   99.8807   58.8261 C   0  0  0  0  0  0  0  0  0  0  0  0
  1  2  1  0
  2  3  2  0
  3  4  1  0
  4  5  2  0
  5  6  1  0
  6  7  1  0
  7  8  1  0
  8  9  2  0
  8 10  1  0
 10 11  1  0
 11 12  1  0
 12 13  1  0
 13 14  1  0
 14 15  2  0
 14 16  1  0
 16 17  1  0
 17 18  1  0
 18 19  1  0
 19 20  1  0
 13 21  1  0
 21 22  1  0
  6 23  2  0
 23  2  1  0
 22 10  1  0
 20 16  1  0
M  END
$$$$
