
     RDKit          3D

 26 28  0  0  0  0  0  0  0  0999 V2000
   17.2241   51.1274   12.2495 C   0  0  0  0  0  0  0  0  0  0  0  0
   17.1183   52.2125   13.2661 C   0  0  0  0  0  0  0  0  0  0  0  0
   16.1812   53.3307   12.7590 C   0  0  0  0  0  0  0  0  0  0  0  0
   16.1430   54.1844   14.0102 C   0  0  0  0  0  0  0  0  0  0  0  0
   15.0235   55.1745   13.9511 C   0  0  0  0  0  0  0  0  0  0  0  0
   14.5985   55.5831   15.0475 O   0  0  0  0  0  0  0  0  0  0  0  0
   14.4831   55.6180   12.7462 N   0  0  0  0  0  0  0  0  0  0  0  0
   13.8119   56.8279   12.5326 C   0  0  0  0  0  0  0  0  0  0  0  0
   13.8594   57.8848   13.4003 C   0  0  0  0  0  0  0  0  0  0  0  0
   13.1591   59.0791   13.1265 C   0  0  0  0  0  0  0  0  0  0  0  0
   12.4279   59.1705   11.9782 C   0  0  0  0  0  0  0  0  0  0  0  0
   12.3949   58.1209   11.1401 N   0  0  0  0  0  0  0  0  0  0  0  0
   13.0429   56.9787   11.3657 C   0  0  0  0  0  0  0  0  0  0  0  0
   15.9097   53.1256   15.0514 C   0  0  0  0  0  0  0  0  0  0  0  0
   16.6113   53.4586   16.3596 C   0  0  0  0  0  0  0  0  0  0  0  0
   16.5011   51.8919   14.5062 N   0  0  0  0  0  0  0  0  0  0  0  0
   16.4449   50.6519   15.1647 C   0  0  0  0  0  0  0  0  0  0  0  0
   17.3000   49.7640   14.7618 O   0  0  0  0  0  0  0  0  0  0  0  0
   15.5296   50.2861   16.2333 C   0  0  0  0  0  0  0  0  0  0  0  0
   15.9438   50.1868   17.5517 C   0  0  0  0  0  0  0  0  0  0  0  0
   15.0867   49.8439   18.5571 C   0  0  0  0  0  0  0  0  0  0  0  0
   13.7702   49.5917   18.2319 C   0  0  0  0  0  0  0  0  0  0  0  0
   12.5958   49.1424   19.4654 Cl  0  0  0  0  0  0  0  0  0  0  0  0
   13.3392   49.6844   16.9348 C   0  0  0  0  0  0  0  0  0  0  0  0
   14.2189   50.0329   15.9298 C   0  0  0  0  0  0  0  0  0  0  0  0
   13.5562   50.1507   14.3043 Cl  0  0  0  0  0  0  0  0  0  0  0  0
  1  2  1  0
  2  3  1  0
  3  4  1  0
  4  5  1  0
  5  6  2  0
  5  7  1  0
  7  8  1  0
  8  9  2  0
  9 10  1  0
 10 11  2  0
 11 12  1  0
 12 13  2  0
  4 14  1  0
 14 15  1  0
 14 16  1  0
 16 17  1  0
 17 18  2  0
 17 19  1  0
 19 20  2  0
 20 21  1  0
 21 22  2  0
 22 23  1  0
 22 24  1  0
 24 25  2  0
 25 26  1  0
 16  2  1  0
 25 19  1  0
 13  8  1  0
M  END
$$$$
