
     RDKit          3D

 34 38  0  0  0  0  0  0  0  0999 V2000
   10.8108   94.5237   65.2791 C   0  0  0  0  0  0  0  0  0  0  0  0
   11.3171   95.7414   64.5526 C   0  0  0  0  0  0  0  0  0  0  0  0
   11.2192   95.6256   63.1074 N   0  0  0  0  0  0  0  0  0  0  0  0
   11.6769   94.4891   62.3334 C   0  0  0  0  0  0  0  0  0  0  0  0
   11.2795   94.8185   60.9265 C   0  0  0  0  0  0  0  0  0  0  0  0
   11.2697   96.3495   60.9040 C   0  0  0  0  0  0  0  0  0  0  0  0
   12.6378   96.9249   60.9073 C   0  0  0  0  0  0  0  0  0  0  0  0
   13.1189   97.5603   59.6595 C   0  0  0  0  0  0  0  0  0  0  0  0
   12.1081   98.1464   58.8284 N   0  0  0  0  0  0  0  0  0  0  0  0
   12.4453   98.6669   57.5775 C   0  0  0  0  0  0  0  0  0  0  0  0
   11.7482   99.6144   56.8799 C   0  0  0  0  0  0  0  0  0  0  0  0
   12.1158  100.1074   55.6378 C   0  0  0  0  0  0  0  0  0  0  0  0
   13.2548   99.6218   55.0552 C   0  0  0  0  0  0  0  0  0  0  0  0
   13.7589  100.0372   53.7593 C   0  0  0  0  0  0  0  0  0  0  0  0
   13.2164   99.4548   52.6108 C   0  0  0  0  0  0  0  0  0  0  0  0
   13.7433   99.8401   51.4093 C   0  0  0  0  0  0  0  0  0  0  0  0
   13.1929   99.2499   50.2657 O   0  0  0  0  0  0  0  0  0  0  0  0
   13.8140   99.4524   49.0097 C   0  0  0  0  0  0  0  0  0  0  0  0
   13.8123   98.1126   48.2872 C   0  0  0  0  0  0  0  0  0  0  0  0
   13.5259   98.2763   46.9514 F   0  0  0  0  0  0  0  0  0  0  0  0
   14.7581  100.7576   51.3396 C   0  0  0  0  0  0  0  0  0  0  0  0
   15.2724  101.3104   52.4269 N   0  0  0  0  0  0  0  0  0  0  0  0
   16.2263  102.2053   52.5766 N   0  0  0  0  0  0  0  0  0  0  0  0
   16.4164  102.4915   53.8627 C   0  0  0  0  0  0  0  0  0  0  0  0
   15.4910  101.6938   54.5453 C   0  0  0  0  0  0  0  0  0  0  0  0
   15.3320  101.7097   56.0019 C   0  0  0  0  0  0  0  0  0  0  0  0
   15.2275  101.7182   57.1379 N   0  0  0  0  0  0  0  0  0  0  0  0
   14.7711  100.9494   53.6476 C   0  0  0  0  0  0  0  0  0  0  0  0
   13.9457   98.6638   55.7788 C   0  0  0  0  0  0  0  0  0  0  0  0
   13.5822   98.2063   56.9584 N   0  0  0  0  0  0  0  0  0  0  0  0
   10.7620   98.1791   59.3288 C   0  0  0  0  0  0  0  0  0  0  0  0
   10.3984   96.7816   59.7869 C   0  0  0  0  0  0  0  0  0  0  0  0
   10.6765   96.6256   62.2657 C   0  0  0  0  0  0  0  0  0  0  0  0
    9.8900   97.5319   62.5520 O   0  0  0  0  0  0  0  0  0  0  0  0
  1  2  1  0
  2  3  1  0
  3  4  1  0
  4  5  1  0
  5  6  1  0
  6  7  1  0
  7  8  1  0
  8  9  1  0
  9 10  1  0
 10 11  2  0
 11 12  1  0
 12 13  2  0
 13 14  1  0
 14 15  2  0
 15 16  1  0
 16 17  1  0
 17 18  1  0
 18 19  1  0
 19 20  1  0
 16 21  2  0
 21 22  1  0
 22 23  1  0
 23 24  2  0
 24 25  1  0
 25 26  1  0
 26 27  3  0
 25 28  2  0
 13 29  1  0
 29 30  2  0
  9 31  1  0
 31 32  1  0
  6 33  1  0
 33 34  2  0
 33  3  1  0
 32  6  1  0
 30 10  1  0
 28 14  1  0
 28 22  1  0
M  END
$$$$
