
     RDKit          3D

 27 30  0  0  0  0  0  0  0  0999 V2000
   17.3853   49.2671   23.8409 N   0  0  0  0  0  0  0  0  0  0  0  0
   17.8879   49.0545   22.8542 C   0  0  0  0  0  0  0  0  0  0  0  0
   18.5272   48.7919   21.5537 C   0  0  0  0  0  0  0  0  0  0  0  0
   17.5248   48.4469   20.5251 C   0  0  0  0  0  0  0  0  0  0  0  0
   16.3030   48.5585   20.7699 O   0  0  0  0  0  0  0  0  0  0  0  0
   17.9157   47.9766   19.2278 N   0  0  0  0  0  0  0  0  0  0  0  0
   19.1955   48.3244   18.6688 C   0  0  0  0  0  0  0  0  0  0  0  0
   18.8954   49.2643   17.4540 C   0  0  0  0  0  0  0  0  0  0  0  0
   17.5257   48.8914   16.9398 C   0  0  0  0  0  0  0  0  0  0  0  0
   16.6712   49.7614   16.5750 C   0  0  0  0  0  0  0  0  0  0  0  0
   15.2566   49.5147   16.9421 C   0  0  0  0  0  0  0  0  0  0  0  0
   15.1381   49.2118   18.2766 C   0  0  0  0  0  0  0  0  0  0  0  0
   13.8848   48.9449   18.7755 C   0  0  0  0  0  0  0  0  0  0  0  0
   12.8120   48.9915   17.9402 C   0  0  0  0  0  0  0  0  0  0  0  0
   11.2189   48.6455   18.6063 Cl  0  0  0  0  0  0  0  0  0  0  0  0
   12.9492   49.3053   16.5820 C   0  0  0  0  0  0  0  0  0  0  0  0
   14.1806   49.5765   16.0485 C   0  0  0  0  0  0  0  0  0  0  0  0
   14.2119   49.9412   14.6145 C   0  0  0  0  0  0  0  0  0  0  0  0
   14.8587   51.2324   14.2966 C   0  0  0  0  0  0  0  0  0  0  0  0
   16.2330   51.4863   14.7358 C   0  0  0  0  0  0  0  0  0  0  0  0
   16.8097   52.5638   14.0215 C   0  0  0  0  0  0  0  0  0  0  0  0
   18.0837   52.9467   14.3322 C   0  0  0  0  0  0  0  0  0  0  0  0
   18.8233   52.3014   15.3326 C   0  0  0  0  0  0  0  0  0  0  0  0
   18.2675   51.2798   16.0043 N   0  0  0  0  0  0  0  0  0  0  0  0
   17.0339   50.9171   15.6949 C   0  0  0  0  0  0  0  0  0  0  0  0
   17.4010   47.3983   16.9733 C   0  0  0  0  0  0  0  0  0  0  0  0
   17.0291   47.1251   18.4526 C   0  0  0  0  0  0  0  0  0  0  0  0
  1  2  3  0
  2  3  1  0
  3  4  1  0
  4  5  2  0
  4  6  1  0
  6  7  1  0
  7  8  1  0
  8  9  1  0
  9 10  2  3
 10 11  1  0
 11 12  2  0
 12 13  1  0
 13 14  2  0
 14 15  1  0
 14 16  1  0
 16 17  2  0
 17 18  1  0
 18 19  1  0
 19 20  1  0
 20 21  2  0
 21 22  1  0
 22 23  2  0
 23 24  1  0
 24 25  2  0
  9 26  1  0
 26 27  1  0
 27  6  1  0
 25 10  1  0
 17 11  1  0
 25 20  1  0
M  END
$$$$
