
     RDKit          3D

 28 32  0  0  0  0  0  0  0  0999 V2000
   17.6199  100.8148   52.9081 N   0  0  0  0  0  0  0  0  0  0  0  0
   16.6643  100.7125   53.5380 C   0  0  0  0  0  0  0  0  0  0  0  0
   15.4425  100.5621   54.3251 C   0  0  0  0  0  0  0  0  0  0  0  0
   14.2537  100.1738   53.7683 C   0  0  0  0  0  0  0  0  0  0  0  0
   14.1895   99.9044   52.3469 C   0  0  0  0  0  0  0  0  0  0  0  0
   15.0406   98.9032   51.8782 C   0  0  0  0  0  0  0  0  0  0  0  0
   15.0159   98.6148   50.5510 C   0  0  0  0  0  0  0  0  0  0  0  0
   14.2258   99.2358   49.6846 N   0  0  0  0  0  0  0  0  0  0  0  0
   13.4050  100.1986   50.1245 C   0  0  0  0  0  0  0  0  0  0  0  0
   13.3745  100.5472   51.4602 C   0  0  0  0  0  0  0  0  0  0  0  0
   13.1285  100.0466   54.5658 C   0  0  0  0  0  0  0  0  0  0  0  0
   13.1209  100.2867   55.8961 C   0  0  0  0  0  0  0  0  0  0  0  0
   14.3261  100.6747   56.4307 N   0  0  0  0  0  0  0  0  0  0  0  0
   15.4336  100.8065   55.6833 C   0  0  0  0  0  0  0  0  0  0  0  0
   16.5389  101.1648   56.1883 O   0  0  0  0  0  0  0  0  0  0  0  0
   11.9396  100.1628   56.7421 C   0  0  2  0  0  0  0  0  0  0  0  0
   11.5743  101.4790   57.4174 C   0  0  0  0  0  0  0  0  0  0  0  0
   10.5484  100.9328   58.4291 C   0  0  0  0  0  0  0  0  0  0  0  0
   11.4047   99.8070   58.9635 C   0  0  0  0  0  0  0  0  0  0  0  0
   11.4947   99.1993   60.1977 C   0  0  0  0  0  0  0  0  0  0  0  0
   10.7193   99.5731   61.2283 F   0  0  0  0  0  0  0  0  0  0  0  0
   12.4062   98.1633   60.4203 C   0  0  0  0  0  0  0  0  0  0  0  0
   13.2308   97.7311   59.4098 C   0  0  0  0  0  0  0  0  0  0  0  0
   13.1362   98.3472   58.1655 C   0  0  0  0  0  0  0  0  0  0  0  0
   12.2361   99.3554   57.9818 C   0  0  0  0  0  0  0  0  0  0  0  0
   10.7972   99.5860   55.9930 C   0  0  0  0  0  0  0  0  0  0  0  0
   11.1273   98.8701   54.8308 N   0  0  0  0  0  0  0  0  0  0  0  0
   11.8793   99.6035   53.8594 C   0  0  0  0  0  0  0  0  0  0  0  0
  1  2  3  0
  2  3  1  0
  3  4  2  0
  4  5  1  0
  5  6  2  0
  6  7  1  0
  7  8  2  0
  8  9  1  0
  9 10  2  0
  4 11  1  0
 11 12  2  0
 12 13  1  0
 13 14  1  0
 14 15  2  0
 12 16  1  0
 16 17  1  1
 17 18  1  0
 18 19  1  0
 19 20  2  0
 20 21  1  0
 20 22  1  0
 22 23  2  0
 23 24  1  0
 24 25  2  0
 16 26  1  0
 26 27  1  0
 27 28  1  0
 14  3  1  0
 25 16  1  0
 10  5  1  0
 28 11  1  0
 25 19  1  0
M  END
$$$$
