
     RDKit          3D

 31 34  0  0  0  0  0  0  0  0999 V2000
   38.0589   81.1521   51.8327 O   0  0  0  0  0  0  0  0  0  0  0  0
   39.0889   81.7466   51.3928 C   0  0  0  0  0  0  0  0  0  0  0  0
   38.9446   82.3342   50.1234 N   0  0  0  0  0  0  0  0  0  0  0  0
   37.8594   81.9928   49.2612 C   0  0  0  0  0  0  0  0  0  0  0  0
   36.5406   82.0898   49.7194 C   0  0  0  0  0  0  0  0  0  0  0  0
   35.4896   81.7657   48.9026 C   0  0  0  0  0  0  0  0  0  0  0  0
   34.0953   81.8694   49.3905 C   0  0  0  0  0  0  0  0  0  0  0  0
   33.1421   81.5145   48.6541 O   0  0  0  0  0  0  0  0  0  0  0  0
   33.8075   82.3642   50.6802 N   0  0  0  0  0  0  0  0  0  0  0  0
   32.5318   82.5403   51.2509 C   0  0  0  0  0  0  0  0  0  0  0  0
   31.5432   83.1154   50.4419 C   0  0  0  0  0  0  0  0  0  0  0  0
   30.2588   83.3343   50.8930 C   0  0  0  0  0  0  0  0  0  0  0  0
   29.9088   82.9845   52.1801 C   0  0  0  0  0  0  0  0  0  0  0  0
   28.2850   83.2595   52.7534 Cl  0  0  0  0  0  0  0  0  0  0  0  0
   30.8422   82.4229   52.9971 C   0  0  0  0  0  0  0  0  0  0  0  0
   32.1302   82.2161   52.5084 C   0  0  0  0  0  0  0  0  0  0  0  0
   35.6744   81.3360   47.6132 C   0  0  0  0  0  0  0  0  0  0  0  0
   34.8625   80.9579   46.6063 N   0  0  0  0  0  0  0  0  0  0  0  0
   35.5753   80.6197   45.5174 C   0  0  0  0  0  0  0  0  0  0  0  0
   35.0579   80.1797   44.2902 O   0  0  0  0  0  0  0  0  0  0  0  0
   36.8667   80.7910   45.8527 N   0  0  0  0  0  0  0  0  0  0  0  0
   36.9770   81.2266   47.1205 C   0  0  0  0  0  0  0  0  0  0  0  0
   38.0140   81.5586   47.9627 C   0  0  0  0  0  0  0  0  0  0  0  0
   40.2825   81.7553   52.2323 C   0  0  0  0  0  0  0  0  0  0  0  0
   40.7864   82.8371   52.8821 C   0  0  0  0  0  0  0  0  0  0  0  0
   40.1366   84.0356   52.7484 F   0  0  0  0  0  0  0  0  0  0  0  0
   41.9179   82.7530   53.6566 C   0  0  0  0  0  0  0  0  0  0  0  0
   42.5796   81.5599   53.7980 C   0  0  0  0  0  0  0  0  0  0  0  0
   42.0807   80.4471   53.1431 C   0  0  0  0  0  0  0  0  0  0  0  0
   40.9524   80.5387   52.3729 C   0  0  0  0  0  0  0  0  0  0  0  0
   40.4870   79.4283   51.7435 F   0  0  0  0  0  0  0  0  0  0  0  0
  1  2  2  0
  2  3  1  0
  3  4  1  0
  4  5  2  0
  5  6  1  0
  6  7  1  0
  7  8  2  0
  7  9  1  0
  9 10  1  0
 10 11  2  0
 11 12  1  0
 12 13  2  0
 13 14  1  0
 13 15  1  0
 15 16  2  0
  6 17  2  0
 17 18  1  0
 18 19  1  0
 19 20  1  0
 19 21  2  0
 21 22  1  0
 22 23  2  0
  2 24  1  0
 24 25  2  0
 25 26  1  0
 25 27  1  0
 27 28  2  0
 28 29  1  0
 29 30  2  0
 30 31  1  0
 23  4  1  0
 30 24  1  0
 16 10  1  0
 22 17  1  0
M  END
$$$$
