
     RDKit          3D

 23 26  0  0  0  0  0  0  0  0999 V2000
   40.1096   80.9960   52.5196 F   0  0  0  0  0  0  0  0  0  0  0  0
   39.8009   80.0838   53.4597 C   0  0  0  0  0  0  0  0  0  0  0  0
   40.8313   79.5101   54.2251 C   0  0  0  0  0  0  0  0  0  0  0  0
   40.5323   78.5748   55.1911 C   0  0  0  0  0  0  0  0  0  0  0  0
   39.2290   78.2118   55.3952 C   0  0  0  0  0  0  0  0  0  0  0  0
   38.2354   78.7914   54.6286 C   0  0  0  0  0  0  0  0  0  0  0  0
   38.4809   79.7385   53.6449 C   0  0  0  0  0  0  0  0  0  0  0  0
   37.4324   80.2800   52.9070 N   0  0  0  0  0  0  0  0  0  0  0  0
   36.0529   80.4205   53.3650 C   0  0  0  0  0  0  0  0  0  0  0  0
   35.8470   81.9253   53.1174 C   0  0  0  0  0  0  0  0  0  0  0  0
   36.6050   82.1122   51.8217 C   0  0  0  0  0  0  0  0  0  0  0  0
   35.6397   82.5291   50.7657 C   0  0  0  0  0  0  0  0  0  0  0  0
   34.6582   83.4767   51.1632 N   0  0  0  0  0  0  0  0  0  0  0  0
   33.2964   83.0971   51.2476 C   0  0  0  0  0  0  0  0  0  0  0  0
   32.6738   82.3651   50.2998 N   0  0  0  0  0  0  0  0  0  0  0  0
   31.3870   82.1983   50.7146 C   0  0  0  0  0  0  0  0  0  0  0  0
   30.2859   81.5542   50.1852 C   0  0  0  0  0  0  0  0  0  0  0  0
   29.0639   81.5314   50.8165 C   0  0  0  0  0  0  0  0  0  0  0  0
   28.9520   82.1872   52.0358 C   0  0  0  0  0  0  0  0  0  0  0  0
   30.0375   82.8429   52.5958 C   0  0  0  0  0  0  0  0  0  0  0  0
   31.2525   82.8436   51.9280 C   0  0  0  0  0  0  0  0  0  0  0  0
   32.4329   83.3641   52.1962 O   0  0  0  0  0  0  0  0  0  0  0  0
   37.3393   80.8309   51.5555 C   0  0  0  0  0  0  0  0  0  0  0  0
  1  2  1  0
  2  3  2  0
  3  4  1  0
  4  5  2  0
  5  6  1  0
  6  7  2  0
  7  8  1  0
  8  9  1  0
  9 10  1  0
 10 11  1  0
 11 12  1  0
 12 13  1  0
 13 14  1  0
 14 15  2  0
 15 16  1  0
 16 17  2  0
 17 18  1  0
 18 19  2  0
 19 20  1  0
 20 21  2  0
 21 22  1  0
 11 23  1  0
  7  2  1  0
 23  8  1  0
 22 14  1  0
 21 16  1  0
M  END
$$$$
