
     RDKit          3D

 19 20  0  0  0  0  0  0  0  0999 V2000
   13.5847   97.9371   52.1994 C   0  0  0  0  0  0  0  0  0  0  0  0
   13.3045   99.2915   52.7757 C   0  0  0  0  0  0  0  0  0  0  0  0
   14.5270   99.9975   53.2200 C   0  0  0  0  0  0  0  0  0  0  0  0
   15.4927  100.4509   52.3073 C   0  0  0  0  0  0  0  0  0  0  0  0
   16.5856  101.0923   52.7475 N   0  0  0  0  0  0  0  0  0  0  0  0
   16.7891  101.3178   54.0476 C   0  0  0  0  0  0  0  0  0  0  0  0
   15.8512  100.8809   54.9678 C   0  0  0  0  0  0  0  0  0  0  0  0
   14.7148  100.2177   54.5576 C   0  0  0  0  0  0  0  0  0  0  0  0
   13.7318   99.7582   55.5459 C   0  0  0  0  0  0  0  0  0  0  0  0
   13.2569   98.6175   55.4995 O   0  0  0  0  0  0  0  0  0  0  0  0
   13.2791  100.5959   56.5970 N   0  0  0  0  0  0  0  0  0  0  0  0
   12.4005  100.2955   57.6295 C   0  0  0  0  0  0  0  0  0  0  0  0
   11.3084  100.9920   58.0182 C   0  0  0  0  0  0  0  0  0  0  0  0
   10.5063  100.5965   59.0873 C   0  0  0  0  0  0  0  0  0  0  0  0
   10.8043   99.4552   59.8027 C   0  0  0  0  0  0  0  0  0  0  0  0
   11.9060   98.7171   59.4406 C   0  0  0  0  0  0  0  0  0  0  0  0
   12.2180   97.5382   60.1796 C   0  0  0  0  0  0  0  0  0  0  0  0
   12.4753   96.5507   60.7747 N   0  0  0  0  0  0  0  0  0  0  0  0
   12.6697   99.1486   58.3758 C   0  0  0  0  0  0  0  0  0  0  0  0
  1  2  1  0
  2  3  1  0
  3  4  2  0
  4  5  1  0
  5  6  2  0
  6  7  1  0
  7  8  2  0
  8  9  1  0
  9 10  2  0
  9 11  1  0
 11 12  1  0
 12 13  2  0
 13 14  1  0
 14 15  2  0
 15 16  1  0
 16 17  1  0
 17 18  3  0
 16 19  2  0
  8  3  1  0
 19 12  1  0
M  END
$$$$
