
     RDKit          3D

 20 22  0  0  0  0  0  0  0  0999 V2000
   10.5135  102.5463   57.3151 C   0  0  0  0  0  0  0  0  0  0  0  0
   11.7224  101.8666   57.0538 O   0  0  0  0  0  0  0  0  0  0  0  0
   11.8162  100.5392   57.4524 C   0  0  0  0  0  0  0  0  0  0  0  0
   10.8249   99.9038   58.1841 C   0  0  0  0  0  0  0  0  0  0  0  0
   10.9692   98.5697   58.5586 C   0  0  0  0  0  0  0  0  0  0  0  0
    9.9094   97.8849   59.3428 C   0  0  0  0  0  0  0  0  0  0  0  0
   12.1170   97.8906   58.1884 C   0  0  0  0  0  0  0  0  0  0  0  0
   12.2896   96.1975   58.6692 Cl  0  0  0  0  0  0  0  0  0  0  0  0
   13.0733   98.5443   57.4688 C   0  0  0  0  0  0  0  0  0  0  0  0
   14.3010   97.7959   57.0802 C   0  0  0  0  0  0  0  0  0  0  0  0
   12.9741   99.8631   57.0759 C   0  0  0  0  0  0  0  0  0  0  0  0
   14.0193  100.5293   56.3057 C   0  0  0  0  0  0  0  0  0  0  0  0
   14.9136  101.3713   56.8385 N   0  0  0  0  0  0  0  0  0  0  0  0
   15.8717  101.9746   56.1000 C   0  0  0  0  0  0  0  0  0  0  0  0
   15.9537  101.7371   54.7701 N   0  0  0  0  0  0  0  0  0  0  0  0
   15.0845  100.9002   54.1707 C   0  0  0  0  0  0  0  0  0  0  0  0
   14.9347  100.4893   52.8988 N   0  0  0  0  0  0  0  0  0  0  0  0
   13.8997   99.6353   52.8103 C   0  0  0  0  0  0  0  0  0  0  0  0
   13.3720   99.4994   54.0773 C   0  0  0  0  0  0  0  0  0  0  0  0
   14.0982  100.2835   54.9499 C   0  0  0  0  0  0  0  0  0  0  0  0
  1  2  1  0
  2  3  1  0
  3  4  2  0
  4  5  1  0
  5  6  1  0
  5  7  2  0
  7  8  1  0
  7  9  1  0
  9 10  1  0
  9 11  2  0
 11 12  1  0
 12 13  2  0
 13 14  1  0
 14 15  2  0
 15 16  1  0
 16 17  1  0
 17 18  1  0
 18 19  2  0
 19 20  1  0
 11  3  1  0
 20 12  1  0
 20 16  2  0
M  END
$$$$
