
     RDKit          3D

 18 20  0  0  0  0  0  0  0  0999 V2000
   18.3472   53.8754   11.9953 C   0  0  0  0  0  0  0  0  0  0  0  0
   18.0914   54.3018   13.2865 C   0  0  0  0  0  0  0  0  0  0  0  0
   16.9035   54.8639   13.6336 C   0  0  0  0  0  0  0  0  0  0  0  0
   15.9120   55.0241   12.6926 C   0  0  0  0  0  0  0  0  0  0  0  0
   14.6256   55.6291   13.0539 C   0  0  0  0  0  0  0  0  0  0  0  0
   14.7128   57.0952   13.1722 N   0  0  0  0  0  0  0  0  0  0  0  0
   13.6423   57.8549   12.6597 C   0  0  0  0  0  0  0  0  0  0  0  0
   12.5284   57.1850   12.1533 C   0  0  0  0  0  0  0  0  0  0  0  0
   11.4864   57.9423   11.6542 C   0  0  0  0  0  0  0  0  0  0  0  0
   11.5302   59.2846   11.6499 N   0  0  0  0  0  0  0  0  0  0  0  0
   12.5878   59.9599   12.1300 C   0  0  0  0  0  0  0  0  0  0  0  0
   12.6355   61.3333   12.1269 C   0  0  0  0  0  0  0  0  0  0  0  0
   13.7485   61.9720   12.6335 C   0  0  0  0  0  0  0  0  0  0  0  0
   14.8121   61.2520   13.1420 C   0  0  0  0  0  0  0  0  0  0  0  0
   14.7775   59.8725   13.1512 C   0  0  0  0  0  0  0  0  0  0  0  0
   13.6683   59.2370   12.6464 C   0  0  0  0  0  0  0  0  0  0  0  0
   16.1380   54.6104   11.4050 C   0  0  0  0  0  0  0  0  0  0  0  0
   17.3470   54.0414   11.0637 C   0  0  0  0  0  0  0  0  0  0  0  0
  1  2  2  0
  2  3  1  0
  3  4  2  0
  4  5  1  0
  5  6  1  0
  6  7  1  0
  7  8  2  0
  8  9  1  0
  9 10  2  0
 10 11  1  0
 11 12  2  0
 12 13  1  0
 13 14  2  0
 14 15  1  0
 15 16  2  0
  4 17  1  0
 17 18  2  0
 18  1  1  0
 16  7  1  0
 16 11  1  0
M  END
$$$$
