
     RDKit          3D

 25 26  0  0  0  0  0  0  0  0999 V2000
   -4.1856   65.4839   32.5155 N   0  0  0  0  0  0  0  0  0  0  0  0
   -4.3187   64.3886   32.0541 C   0  0  0  0  0  0  0  0  0  0  0  0
   -4.4805   63.0666   31.4700 C   0  0  0  0  0  0  0  0  0  0  0  0
   -5.8740   62.7853   31.1980 N   0  0  0  0  0  0  0  0  0  0  0  0
   -6.2380   61.4911   30.7836 C   0  0  0  0  0  0  0  0  0  0  0  0
   -5.4714   60.5053   30.7357 O   0  0  0  0  0  0  0  0  0  0  0  0
   -7.7102   61.3425   30.3705 C   0  0  0  0  0  0  0  0  0  0  0  0
   -8.1878   60.0849   30.9682 C   0  0  0  0  0  0  0  0  0  0  0  0
   -9.6331   59.9486   31.1870 C   0  0  0  0  0  0  0  0  0  0  0  0
  -10.4145   59.0112   30.3560 C   0  0  0  0  0  0  0  0  0  0  0  0
  -11.8774   59.1164   30.4754 C   0  0  0  0  0  0  0  0  0  0  0  0
  -12.5980   57.7914   30.6366 C   0  0  0  0  0  0  0  0  0  0  0  0
  -12.0007   56.6120   29.9965 C   0  0  0  0  0  0  0  0  0  0  0  0
  -10.5589   56.7420   29.5745 C   0  0  0  0  0  0  0  0  0  0  0  0
   -9.9012   57.6019   30.6641 C   0  0  0  0  0  0  0  0  0  0  0  0
   -3.6496   63.0145   30.2075 C   0  0  0  0  0  0  0  0  0  0  0  0
   -2.9501   61.6825   30.1319 C   0  0  0  0  0  0  0  0  0  0  0  0
   -1.9250   61.5798   31.1455 N   0  0  0  0  0  0  0  0  0  0  0  0
   -1.4482   60.2502   31.2802 C   0  0  0  0  0  0  0  0  0  0  0  0
   -1.2166   59.4871   30.0244 C   0  0  0  0  0  0  0  0  0  0  0  0
   -0.5221   58.3142   30.1952 F   0  0  0  0  0  0  0  0  0  0  0  0
   -0.4371   60.3038   29.1927 F   0  0  0  0  0  0  0  0  0  0  0  0
   -2.3797   59.2118   29.3321 F   0  0  0  0  0  0  0  0  0  0  0  0
   -2.4010   62.0789   32.4250 C   0  0  0  0  0  0  0  0  0  0  0  0
   -3.9159   62.0627   32.4460 C   0  0  0  0  0  0  0  0  0  0  0  0
  1  2  3  0
  2  3  1  0
  3  4  1  0
  4  5  1  0
  5  6  2  0
  5  7  1  0
  7  8  1  0
  8  9  1  0
  9 10  1  0
 10 11  1  0
 11 12  1  0
 12 13  1  0
 13 14  1  0
 14 15  1  0
  3 16  1  0
 16 17  1  0
 17 18  1  0
 18 19  1  0
 19 20  1  0
 20 21  1  0
 20 22  1  0
 20 23  1  0
 18 24  1  0
 24 25  1  0
 25  3  1  0
 15 10  1  0
M  END
$$$$
