
     RDKit          3D

 20 21  0  0  0  0  0  0  0  0999 V2000
   38.5338   82.2973   49.8186 C   0  0  0  0  0  0  0  0  0  0  0  0
   37.5401   82.2208   50.9156 C   0  0  0  0  0  0  0  0  0  0  0  0
   37.9044   82.6591   52.1666 C   0  0  0  0  0  0  0  0  0  0  0  0
   36.9659   82.5786   53.1752 C   0  0  0  0  0  0  0  0  0  0  0  0
   35.7354   82.0892   52.9470 N   0  0  0  0  0  0  0  0  0  0  0  0
   35.3535   81.6570   51.7452 C   0  0  0  0  0  0  0  0  0  0  0  0
   33.9730   81.1057   51.4811 C   0  0  0  0  0  0  0  0  0  0  0  0
   33.6118   81.3650   50.0573 C   0  0  0  0  0  0  0  0  0  0  0  0
   33.6865   80.0161   49.3499 C   0  0  0  0  0  0  0  0  0  0  0  0
   32.4520   82.0859   49.7784 N   0  0  0  0  0  0  0  0  0  0  0  0
   32.4326   82.6321   48.4617 C   0  0  0  0  0  0  0  0  0  0  0  0
   31.8781   81.7197   47.4441 C   0  0  0  0  0  0  0  0  0  0  0  0
   32.5448   81.3486   46.2662 N   0  0  0  0  0  0  0  0  0  0  0  0
   30.7289   81.2423   47.6433 O   0  0  0  0  0  0  0  0  0  0  0  0
   31.2113   81.7595   50.3586 C   0  0  0  0  0  0  0  0  0  0  0  0
   31.2100   81.3316   51.7882 C   0  0  0  0  0  0  0  0  0  0  0  0
   29.8552   81.6429   52.3680 C   0  0  0  0  0  0  0  0  0  0  0  0
   29.2566   82.6533   51.4612 C   0  0  0  0  0  0  0  0  0  0  0  0
   30.2649   82.9718   50.3987 C   0  0  0  0  0  0  0  0  0  0  0  0
   36.2691   81.7232   50.7133 C   0  0  0  0  0  0  0  0  0  0  0  0
  1  2  1  0
  2  3  2  0
  3  4  1  0
  4  5  2  0
  5  6  1  0
  6  7  1  0
  7  8  1  0
  8  9  1  0
  8 10  1  0
 10 11  1  0
 11 12  1  0
 12 13  1  0
 12 14  2  0
 10 15  1  0
 15 16  1  0
 16 17  1  0
 17 18  1  0
 18 19  1  0
  6 20  2  0
 20  2  1  0
 19 15  1  0
M  END
$$$$
