
     RDKit          3D

 38 43  0  0  0  0  0  0  0  0999 V2000
    9.7839   98.2705   56.6778 O   0  0  0  0  0  0  0  0  0  0  0  0
   10.5410   98.7151   57.5937 C   0  0  0  0  0  0  0  0  0  0  0  0
   11.2748   99.9367   57.2933 C   0  0  0  0  0  0  0  0  0  0  0  0
   11.0367  101.0485   58.0647 C   0  0  0  0  0  0  0  0  0  0  0  0
   11.7373  102.2120   57.7675 C   0  0  0  0  0  0  0  0  0  0  0  0
   12.6564  102.2662   56.7227 C   0  0  0  0  0  0  0  0  0  0  0  0
   12.8970  101.1532   55.9477 C   0  0  0  0  0  0  0  0  0  0  0  0
   13.8440  101.1595   54.8407 C   0  0  0  0  0  0  0  0  0  0  0  0
   15.1615  101.5300   55.0182 C   0  0  0  0  0  0  0  0  0  0  0  0
   16.0348  101.5322   53.9925 N   0  0  0  0  0  0  0  0  0  0  0  0
   15.6470  101.1687   52.7439 C   0  0  0  0  0  0  0  0  0  0  0  0
   16.5690  101.1779   51.6945 C   0  0  0  0  0  0  0  0  0  0  0  0
   16.2147  100.8158   50.4151 C   0  0  0  0  0  0  0  0  0  0  0  0
   14.9056  100.4416   50.2112 C   0  0  0  0  0  0  0  0  0  0  0  0
   13.9725  100.4215   51.2224 C   0  0  0  0  0  0  0  0  0  0  0  0
   14.3473  100.7888   52.5018 C   0  0  0  0  0  0  0  0  0  0  0  0
   13.4530  100.7908   53.5726 C   0  0  0  0  0  0  0  0  0  0  0  0
   12.1894  100.0139   56.2640 C   0  0  0  0  0  0  0  0  0  0  0  0
   10.6672   98.0656   58.8324 N   0  0  0  0  0  0  0  0  0  0  0  0
   11.5363   98.6099   59.8449 C   0  0  0  0  0  0  0  0  0  0  0  0
   11.9919   97.5509   60.7825 C   0  0  0  0  0  0  0  0  0  0  0  0
   10.9934   96.6838   61.3081 N   0  0  0  0  0  0  0  0  0  0  0  0
   10.8005   96.8363   62.7242 C   0  0  0  0  0  0  0  0  0  0  0  0
   11.1785   95.6356   63.4579 C   0  0  0  0  0  0  0  0  0  0  0  0
   10.4468   95.1315   64.4977 C   0  0  0  0  0  0  0  0  0  0  0  0
   10.8221   93.9788   65.1838 C   0  0  0  0  0  0  0  0  0  0  0  0
   11.9751   93.3530   64.7738 C   0  0  0  0  0  0  0  0  0  0  0  0
   12.7521   93.7975   63.7490 C   0  0  0  0  0  0  0  0  0  0  0  0
   13.9480   93.1125   63.3619 N   0  0  0  0  0  0  0  0  0  0  0  0
   15.0379   93.8144   62.9702 C   0  0  0  0  0  0  0  0  0  0  0  0
   16.2121   93.1828   62.5886 C   0  0  0  0  0  0  0  0  0  0  0  0
   16.3092   91.8032   62.5956 C   0  0  0  0  0  0  0  0  0  0  0  0
   15.1978   91.0926   62.9949 C   0  0  0  0  0  0  0  0  0  0  0  0
   14.0499   91.7723   63.3661 C   0  0  0  0  0  0  0  0  0  0  0  0
   13.0509   91.0925   63.7257 O   0  0  0  0  0  0  0  0  0  0  0  0
   12.3400   94.9477   63.0945 C   0  0  0  0  0  0  0  0  0  0  0  0
    9.7474   96.6862   60.6163 C   0  0  0  0  0  0  0  0  0  0  0  0
    9.9361   96.8598   59.1077 C   0  0  0  0  0  0  0  0  0  0  0  0
  1  2  2  0
  2  3  1  0
  3  4  2  0
  4  5  1  0
  5  6  2  0
  6  7  1  0
  7  8  1  0
  8  9  2  0
  9 10  1  0
 10 11  2  0
 11 12  1  0
 12 13  2  0
 13 14  1  0
 14 15  2  0
 15 16  1  0
 16 17  2  0
  7 18  2  0
  2 19  1  0
 19 20  1  0
 20 21  1  0
 21 22  1  0
 22 23  1  0
 23 24  1  0
 24 25  2  0
 25 26  1  0
 26 27  2  0
 27 28  1  0
 28 29  1  0
 29 30  1  0
 30 31  2  0
 31 32  1  0
 32 33  2  0
 33 34  1  0
 34 35  2  0
 28 36  2  0
 22 37  1  0
 37 38  1  0
 18  3  1  0
 38 19  1  0
 17  8  1  0
 36 24  1  0
 16 11  1  0
 34 29  1  0
M  END
$$$$
