
     RDKit          3D

 24 26  0  0  0  0  0  0  0  0999 V2000
   39.7189   81.6283   54.3176 C   0  0  0  0  0  0  0  0  0  0  0  0
   39.6925   80.2977   53.6802 N   0  0  0  0  0  0  0  0  0  0  0  0
   40.3832   79.2547   54.3676 C   0  0  0  0  0  0  0  0  0  0  0  0
   39.0177   80.1717   52.4663 C   0  0  0  0  0  0  0  0  0  0  0  0
   39.0479   78.9688   51.9361 O   0  0  0  0  0  0  0  0  0  0  0  0
   38.3072   81.1337   51.7200 N   0  0  0  0  0  0  0  0  0  0  0  0
   37.9769   82.4419   52.3369 C   0  0  0  0  0  0  0  0  0  0  0  0
   36.4812   82.4939   52.3936 C   0  0  0  0  0  0  0  0  0  0  0  0
   35.8913   82.3182   51.0793 N   0  0  0  0  0  0  0  0  0  0  0  0
   34.5111   82.5163   50.8368 C   0  0  0  0  0  0  0  0  0  0  0  0
   33.7673   82.9425   51.7317 O   0  0  0  0  0  0  0  0  0  0  0  0
   33.9400   82.2191   49.5290 C   0  0  0  0  0  0  0  0  0  0  0  0
   34.5759   82.1039   48.3166 C   0  0  0  0  0  0  0  0  0  0  0  0
   33.6037   81.8108   47.3831 C   0  0  0  0  0  0  0  0  0  0  0  0
   32.4110   81.7603   48.0736 C   0  0  0  0  0  0  0  0  0  0  0  0
   32.5916   82.0046   49.3756 N   0  0  0  0  0  0  0  0  0  0  0  0
   31.6296   82.0467   50.4413 C   0  0  0  0  0  0  0  0  0  0  0  0
   31.8250   81.4019   51.6431 C   0  0  0  0  0  0  0  0  0  0  0  0
   30.9004   81.4358   52.6641 C   0  0  0  0  0  0  0  0  0  0  0  0
   29.7161   82.1306   52.5224 C   0  0  0  0  0  0  0  0  0  0  0  0
   29.5072   82.7848   51.3170 C   0  0  0  0  0  0  0  0  0  0  0  0
   30.4463   82.7402   50.3029 C   0  0  0  0  0  0  0  0  0  0  0  0
   36.7455   81.9508   49.9835 C   0  0  0  0  0  0  0  0  0  0  0  0
   37.8385   80.9656   50.3819 C   0  0  0  0  0  0  0  0  0  0  0  0
  1  2  1  0
  2  3  1  0
  2  4  1  0
  4  5  2  0
  4  6  1  0
  6  7  1  0
  7  8  1  0
  8  9  1  0
  9 10  1  0
 10 11  2  0
 10 12  1  0
 12 13  2  0
 13 14  1  0
 14 15  2  0
 15 16  1  0
 16 17  1  0
 17 18  2  0
 18 19  1  0
 19 20  2  0
 20 21  1  0
 21 22  2  0
  9 23  1  0
 23 24  1  0
 24  6  1  0
 16 12  1  0
 22 17  1  0
M  END
$$$$
