
     RDKit          3D

 33 36  0  0  0  0  0  0  0  0999 V2000
   19.3406  103.2756   48.5409 C   0  0  0  0  0  0  0  0  0  0  0  0
   18.2682  102.7480   49.4016 C   0  0  0  0  0  0  0  0  0  0  0  0
   18.0714  102.3490   50.5195 N   0  0  0  0  0  0  0  0  0  0  0  0
   16.9394  101.9389   50.9787 N   0  0  0  0  0  0  0  0  0  0  0  0
   15.9141  101.8913   50.3711 C   0  0  0  0  0  0  0  0  0  0  0  0
   14.1996  101.4476   50.5267 S   0  0  0  0  0  0  0  0  0  0  0  0
   13.6298  101.9558   52.1448 C   0  0  0  0  0  0  0  0  0  0  0  0
   13.8535  100.8695   53.1207 C   0  0  0  0  0  0  0  0  0  0  0  0
   13.8738   99.6619   52.7459 O   0  0  0  0  0  0  0  0  0  0  0  0
   14.0500  101.1829   54.4926 N   0  0  0  0  0  0  0  0  0  0  0  0
   13.5459  100.4043   55.5406 C   0  0  0  0  0  0  0  0  0  0  0  0
   14.3163  100.0629   56.6167 C   0  0  0  0  0  0  0  0  0  0  0  0
   13.8644   99.3167   57.6622 C   0  0  0  0  0  0  0  0  0  0  0  0
   12.5447   98.8414   57.6979 C   0  0  0  0  0  0  0  0  0  0  0  0
   11.9393   98.1301   58.6007 N   0  0  0  0  0  0  0  0  0  0  0  0
   10.8410   97.7249   58.6589 C   0  0  0  0  0  0  0  0  0  0  0  0
    9.7215   96.7644   59.6878 S   0  0  0  0  0  0  0  0  0  0  0  0
   10.3334   96.8410   61.4153 C   0  0  0  0  0  0  0  0  0  0  0  0
   11.1378   95.6605   61.7659 C   0  0  0  0  0  0  0  0  0  0  0  0
   12.0811   95.3079   61.0250 O   0  0  0  0  0  0  0  0  0  0  0  0
   10.8651   94.8947   62.9507 N   0  0  0  0  0  0  0  0  0  0  0  0
   11.7324   93.8639   63.4193 C   0  0  0  0  0  0  0  0  0  0  0  0
   11.3248   93.0663   64.4883 C   0  0  0  0  0  0  0  0  0  0  0  0
   12.0922   92.0637   64.9825 C   0  0  0  0  0  0  0  0  0  0  0  0
   13.3298   91.8576   64.3660 C   0  0  0  0  0  0  0  0  0  0  0  0
   14.1117   90.8652   64.8366 F   0  0  0  0  0  0  0  0  0  0  0  0
   13.7684   92.6257   63.3062 C   0  0  0  0  0  0  0  0  0  0  0  0
   15.3244   92.3543   62.5423 Cl  0  0  0  0  0  0  0  0  0  0  0  0
   12.9545   93.6407   62.8312 C   0  0  0  0  0  0  0  0  0  0  0  0
   10.1961   98.4277   57.0136 S   0  0  0  0  0  0  0  0  0  0  0  0
   11.7725   99.1966   56.5972 C   0  0  0  0  0  0  0  0  0  0  0  0
   12.2231   99.9459   55.5447 C   0  0  0  0  0  0  0  0  0  0  0  0
   16.5111  102.5577   48.7039 S   0  0  0  0  0  0  0  0  0  0  0  0
  1  2  1  0
  2  3  2  0
  3  4  1  0
  4  5  2  0
  5  6  1  0
  6  7  1  0
  7  8  1  0
  8  9  2  0
  8 10  1  0
 10 11  1  0
 11 12  2  0
 12 13  1  0
 13 14  2  0
 14 15  1  0
 15 16  2  0
 16 17  1  0
 17 18  1  0
 18 19  1  0
 19 20  2  0
 19 21  1  0
 21 22  1  0
 22 23  2  0
 23 24  1  0
 24 25  2  0
 25 26  1  0
 25 27  1  0
 27 28  1  0
 27 29  2  0
 16 30  1  0
 30 31  1  0
 31 32  2  0
  5 33  1  0
 33  2  1  0
 32 11  1  0
 31 14  1  0
 29 22  1  0
M  END
$$$$
