
     RDKit          3D

 31 35  0  0  0  0  0  0  0  0999 V2000
   13.0899   94.2053   62.8535 C   0  0  0  0  0  0  0  0  0  0  0  0
   13.6542   94.8935   61.7798 O   0  0  0  0  0  0  0  0  0  0  0  0
   13.1052   96.0482   61.2718 C   0  0  0  0  0  0  0  0  0  0  0  0
   13.6916   97.2650   61.4100 C   0  0  0  0  0  0  0  0  0  0  0  0
   13.0805   98.4257   60.8725 C   0  0  0  0  0  0  0  0  0  0  0  0
   11.8853   98.3164   60.2113 C   0  0  0  0  0  0  0  0  0  0  0  0
   11.1153   99.5326   59.6989 C   0  0  0  0  0  0  0  0  0  0  0  0
   10.1453   99.1364   58.6937 C   0  0  0  0  0  0  0  0  0  0  0  0
    9.9557   99.9370   57.4579 C   0  0  0  0  0  0  0  0  0  0  0  0
   11.2438  100.5791   57.0813 N   0  0  0  0  0  0  0  0  0  0  0  0
   11.7806  100.2996   55.8547 C   0  0  0  0  0  0  0  0  0  0  0  0
   11.0763   99.4436   55.0090 N   0  0  0  0  0  0  0  0  0  0  0  0
   11.5094   99.1481   53.7969 C   0  0  0  0  0  0  0  0  0  0  0  0
   12.6443   99.6462   53.2906 N   0  0  0  0  0  0  0  0  0  0  0  0
   13.4049  100.4975   54.0459 C   0  0  0  0  0  0  0  0  0  0  0  0
   12.9411  100.7975   55.3188 C   0  0  0  0  0  0  0  0  0  0  0  0
   13.9053  101.6519   55.8299 C   0  0  0  0  0  0  0  0  0  0  0  0
   14.8675  101.8312   54.8887 N   0  0  0  0  0  0  0  0  0  0  0  0
   14.5596  101.1232   53.7928 N   0  0  0  0  0  0  0  0  0  0  0  0
   15.3554  101.0746   52.6031 C   0  0  0  0  0  0  0  0  0  0  0  0
   15.9396  102.1682   52.0141 C   0  0  0  0  0  0  0  0  0  0  0  0
   16.6742  102.1010   50.8572 C   0  0  0  0  0  0  0  0  0  0  0  0
   16.8617  100.8709   50.2064 C   0  0  0  0  0  0  0  0  0  0  0  0
   16.2886   99.7844   50.7772 C   0  0  0  0  0  0  0  0  0  0  0  0
   16.3966   98.4563   50.1978 C   0  0  0  0  0  0  0  0  0  0  0  0
   16.4731   97.3817   49.7266 N   0  0  0  0  0  0  0  0  0  0  0  0
   15.5346   99.8397   51.9661 C   0  0  0  0  0  0  0  0  0  0  0  0
   11.7560  101.4155   58.1173 C   0  0  0  0  0  0  0  0  0  0  0  0
   12.1482  100.5336   59.2897 C   0  0  0  0  0  0  0  0  0  0  0  0
   11.2895   97.0947   60.0648 C   0  0  0  0  0  0  0  0  0  0  0  0
   11.8881   95.9849   60.5837 C   0  0  0  0  0  0  0  0  0  0  0  0
  1  2  1  0
  2  3  1  0
  3  4  2  0
  4  5  1  0
  5  6  2  0
  6  7  1  0
  7  8  1  0
  8  9  1  0
  9 10  1  0
 10 11  1  0
 11 12  2  0
 12 13  1  0
 13 14  2  0
 14 15  1  0
 15 16  2  0
 16 17  1  0
 17 18  2  0
 18 19  1  0
 19 20  1  0
 20 21  2  0
 21 22  1  0
 22 23  2  0
 23 24  1  0
 24 25  1  0
 25 26  3  0
 24 27  2  0
 10 28  1  0
 28 29  1  0
  6 30  1  0
 30 31  2  0
 31  3  1  0
 29  7  1  0
 16 11  1  0
 27 20  1  0
 19 15  1  0
M  END
$$$$
