
     RDKit          3D

 16 18  0  0  0  0  0  0  0  0999 V2000
   35.1065   81.4483   54.7825 C   0  0  0  0  0  0  0  0  0  0  0  0
   35.5843   81.5401   53.4570 O   0  0  0  0  0  0  0  0  0  0  0  0
   34.7290   81.8698   52.4345 C   0  0  0  0  0  0  0  0  0  0  0  0
   35.2346   82.0467   51.1641 C   0  0  0  0  0  0  0  0  0  0  0  0
   34.3767   82.3767   50.1422 C   0  0  0  0  0  0  0  0  0  0  0  0
   33.0469   82.5320   50.3549 C   0  0  0  0  0  0  0  0  0  0  0  0
   32.5115   82.3626   51.6097 C   0  0  0  0  0  0  0  0  0  0  0  0
   33.3534   82.0326   52.6436 C   0  0  0  0  0  0  0  0  0  0  0  0
   31.0722   82.5149   51.9195 C   0  0  0  0  0  0  0  0  0  0  0  0
   30.1842   82.4175   50.7257 C   0  0  0  0  0  0  0  0  0  0  0  0
   30.8897   82.1064   49.5038 N   0  0  0  0  0  0  0  0  0  0  0  0
   30.7146   81.1884   48.4364 C   0  0  0  0  0  0  0  0  0  0  0  0
   29.7750   80.3573   48.3484 O   0  0  0  0  0  0  0  0  0  0  0  0
   31.8144   81.4101   47.5049 C   0  0  0  0  0  0  0  0  0  0  0  0
   32.6046   82.3818   47.9545 C   0  0  0  0  0  0  0  0  0  0  0  0
   32.0960   82.8954   49.2340 C   0  0  0  0  0  0  0  0  0  0  0  0
  1  2  1  0
  2  3  1  0
  3  4  2  0
  4  5  1  0
  5  6  2  0
  6  7  1  0
  7  8  2  0
  7  9  1  0
  9 10  1  0
 10 11  1  0
 11 12  1  0
 12 13  2  0
 12 14  1  0
 14 15  2  0
 15 16  1  0
  8  3  1  0
 16 11  1  0
 16  6  1  0
M  END
$$$$
