
     RDKit          3D

 25 28  0  0  0  0  0  0  0  0999 V2000
   13.5971   49.0827   18.4233 C   0  0  0  0  0  0  0  0  0  0  0  0
   13.6733   50.5303   17.9885 C   0  0  0  0  0  0  0  0  0  0  0  0
   14.8759   50.8174   17.2434 N   0  0  0  0  0  0  0  0  0  0  0  0
   14.9201   51.3639   16.0168 C   0  0  0  0  0  0  0  0  0  0  0  0
   16.2514   51.4737   15.6587 C   0  0  0  0  0  0  0  0  0  0  0  0
   16.7940   52.0234   14.3758 C   0  0  0  0  0  0  0  0  0  0  0  0
   15.8350   52.9756   13.8483 N   0  0  0  0  0  0  0  0  0  0  0  0
   16.0235   54.3832   13.8421 C   0  0  0  0  0  0  0  0  0  0  0  0
   17.0884   54.8273   14.3331 O   0  0  0  0  0  0  0  0  0  0  0  0
   14.9773   55.2138   13.2715 C   0  0  0  0  0  0  0  0  0  0  0  0
   13.7042   54.8720   12.8654 C   0  0  0  0  0  0  0  0  0  0  0  0
   13.0942   55.9746   12.3996 N   0  0  0  0  0  0  0  0  0  0  0  0
   13.9369   57.0138   12.4943 N   0  0  0  0  0  0  0  0  0  0  0  0
   13.5445   58.3065   12.0606 C   0  0  0  0  0  0  0  0  0  0  0  0
   12.1953   58.6660   12.1480 C   0  0  0  0  0  0  0  0  0  0  0  0
   11.7532   59.9115   11.7383 C   0  0  0  0  0  0  0  0  0  0  0  0
   12.6394   60.8196   11.2359 C   0  0  0  0  0  0  0  0  0  0  0  0
   13.9794   60.4439   11.1563 C   0  0  0  0  0  0  0  0  0  0  0  0
   14.3766   59.2249   11.5633 N   0  0  0  0  0  0  0  0  0  0  0  0
   15.0833   56.5640   13.0225 C   0  0  0  0  0  0  0  0  0  0  0  0
   16.2765   57.3791   13.2854 C   0  0  0  0  0  0  0  0  0  0  0  0
   17.0230   58.1143   12.2586 C   0  0  0  0  0  0  0  0  0  0  0  0
   17.5917   56.7753   12.7495 C   0  0  0  0  0  0  0  0  0  0  0  0
   16.9810   50.9753   16.7123 C   0  0  0  0  0  0  0  0  0  0  0  0
   16.1192   50.5759   17.6790 N   0  0  0  0  0  0  0  0  0  0  0  0
  1  2  1  0
  2  3  1  0
  3  4  1  0
  4  5  2  0
  5  6  1  0
  6  7  1  0
  7  8  1  0
  8  9  2  0
  8 10  1  0
 10 11  1  0
 11 12  2  0
 12 13  1  0
 13 14  1  0
 14 15  2  0
 15 16  1  0
 16 17  2  0
 17 18  1  0
 18 19  2  0
 13 20  1  0
 20 21  1  0
 21 22  1  0
 22 23  1  0
  5 24  1  0
 24 25  2  0
 25  3  1  0
 20 10  2  0
 23 21  1  0
 19 14  1  0
M  END
$$$$
