
     RDKit          3D

 24 25  0  0  0  0  0  0  0  0999 V2000
    9.6504   96.4433   60.4785 C   0  0  0  0  0  0  0  0  0  0  0  0
   11.1640   96.7057   60.4586 C   0  0  0  0  0  0  0  0  0  0  0  0
   11.4787   97.8574   59.6656 N   0  0  0  0  0  0  0  0  0  0  0  0
   12.6437   97.9446   58.8382 C   0  0  0  0  0  0  0  0  0  0  0  0
   13.3728   96.9385   58.7247 O   0  0  0  0  0  0  0  0  0  0  0  0
   12.9703   99.1551   58.1535 N   0  0  0  0  0  0  0  0  0  0  0  0
   12.0048  100.2332   58.1253 C   0  0  0  0  0  0  0  0  0  0  0  0
   14.2400   99.3315   57.4831 C   0  0  0  0  0  0  0  0  0  0  0  0
   14.1205   99.4965   56.0232 C   0  0  0  0  0  0  0  0  0  0  0  0
   13.5341   98.5110   55.2504 C   0  0  0  0  0  0  0  0  0  0  0  0
   13.4031   98.6251   53.8886 C   0  0  0  0  0  0  0  0  0  0  0  0
   13.8673   99.7551   53.2557 C   0  0  0  0  0  0  0  0  0  0  0  0
   14.4513  100.7356   54.0283 C   0  0  0  0  0  0  0  0  0  0  0  0
   14.5618  100.5880   55.3603 N   0  0  0  0  0  0  0  0  0  0  0  0
   11.6563   96.8045   61.8564 C   0  0  0  0  0  0  0  0  0  0  0  0
   11.2813   97.7841   62.5469 O   0  0  0  0  0  0  0  0  0  0  0  0
   12.5227   95.8597   62.4545 N   0  0  0  0  0  0  0  0  0  0  0  0
   12.7936   95.7426   63.8686 C   0  0  0  0  0  0  0  0  0  0  0  0
   13.2421   94.3914   64.2728 C   0  0  0  0  0  0  0  0  0  0  0  0
   14.0820   93.6328   63.4464 C   0  0  0  0  0  0  0  0  0  0  0  0
   14.5137   92.3724   63.7947 C   0  0  0  0  0  0  0  0  0  0  0  0
   14.1353   91.8025   64.9769 C   0  0  0  0  0  0  0  0  0  0  0  0
   13.3094   92.5196   65.8152 C   0  0  0  0  0  0  0  0  0  0  0  0
   12.8768   93.7972   65.4528 C   0  0  0  0  0  0  0  0  0  0  0  0
  1  2  1  0
  2  3  1  0
  3  4  1  0
  4  5  2  0
  4  6  1  0
  6  7  1  0
  6  8  1  0
  8  9  1  0
  9 10  2  0
 10 11  1  0
 11 12  2  0
 12 13  1  0
 13 14  2  0
  2 15  1  0
 15 16  2  0
 15 17  1  0
 17 18  1  0
 18 19  1  0
 19 20  2  0
 20 21  1  0
 21 22  2  0
 22 23  1  0
 23 24  2  0
 14  9  1  0
 24 19  1  0
M  END
$$$$
