
     RDKit          3D

 29 32  0  0  0  0  0  0  0  0999 V2000
   32.4765   82.9107   52.9627 C   0  0  0  0  0  0  0  0  0  0  0  0
   32.4147   82.7379   51.6707 C   0  0  0  0  0  0  0  0  0  0  0  0
   32.8259   81.4173   51.0953 C   0  0  0  0  0  0  0  0  0  0  0  0
   34.5777   81.3882   50.6450 S   0  0  0  0  0  0  0  0  0  0  0  0
   35.5301   81.2123   52.1662 C   0  0  0  0  0  0  0  0  0  0  0  0
   35.0768   81.0890   53.4258 N   0  0  0  0  0  0  0  0  0  0  0  0
   36.1653   80.9877   54.2061 N   0  0  0  0  0  0  0  0  0  0  0  0
   37.2685   81.0480   53.4357 C   0  0  0  0  0  0  0  0  0  0  0  0
   38.6387   80.9718   53.9397 C   0  0  0  0  0  0  0  0  0  0  0  0
   38.8057   80.2622   55.2338 C   0  0  0  0  0  0  0  0  0  0  0  0
   39.3813   82.6267   54.1170 S   0  0  0  0  0  0  0  0  0  0  0  0
   40.9052   82.7317   53.2054 C   0  0  0  0  0  0  0  0  0  0  0  0
   41.5181   81.6849   52.6333 N   0  0  0  0  0  0  0  0  0  0  0  0
   42.6453   82.0847   52.0206 C   0  0  0  0  0  0  0  0  0  0  0  0
   42.6957   83.4477   52.2472 C   0  0  0  0  0  0  0  0  0  0  0  0
   41.6433   83.8284   52.9617 N   0  0  0  0  0  0  0  0  0  0  0  0
   41.3343   85.1934   53.4078 C   0  0  0  0  0  0  0  0  0  0  0  0
   36.8719   81.1883   52.1611 N   0  0  0  0  0  0  0  0  0  0  0  0
   37.7380   81.2831   51.0783 N   0  0  0  0  0  0  0  0  0  0  0  0
   39.0768   80.8408   50.9549 C   0  0  0  0  0  0  0  0  0  0  0  0
   39.7533   80.2510   51.8559 O   0  0  0  0  0  0  0  0  0  0  0  0
   39.5749   81.1620   49.6308 C   0  0  0  0  0  0  0  0  0  0  0  0
   40.8057   80.9530   48.9989 C   0  0  0  0  0  0  0  0  0  0  0  0
   41.0399   81.3560   47.7142 C   0  0  0  0  0  0  0  0  0  0  0  0
   40.0201   81.9855   47.0379 C   0  0  0  0  0  0  0  0  0  0  0  0
   38.7873   82.2074   47.6381 C   0  0  0  0  0  0  0  0  0  0  0  0
   38.5636   81.7893   48.9522 C   0  0  0  0  0  0  0  0  0  0  0  0
   37.3993   81.8794   49.8346 C   0  0  0  0  0  0  0  0  0  0  0  0
   36.3249   82.4125   49.4641 O   0  0  0  0  0  0  0  0  0  0  0  0
  1  2  2  0
  2  3  1  0
  3  4  1  0
  4  5  1  0
  5  6  2  0
  6  7  1  0
  7  8  2  0
  8  9  1  0
  9 10  1  0
  9 11  1  0
 11 12  1  0
 12 13  2  0
 13 14  1  0
 14 15  2  0
 15 16  1  0
 16 17  1  0
  8 18  1  0
 18 19  1  0
 19 20  1  0
 20 21  2  0
 20 22  1  0
 22 23  2  0
 23 24  1  0
 24 25  2  0
 25 26  1  0
 26 27  2  0
 27 28  1  0
 28 29  2  0
 18  5  1  0
 28 19  1  0
 16 12  1  0
 27 22  1  0
M  END
$$$$
