
     RDKit          3D

 20 22  0  0  0  0  0  0  0  0999 V2000
   15.6848   94.0515   62.1521 C   0  0  0  0  0  0  0  0  0  0  0  0
   14.8059   94.7072   63.0092 O   0  0  0  0  0  0  0  0  0  0  0  0
   13.7212   95.4691   62.5700 C   0  0  0  0  0  0  0  0  0  0  0  0
   12.7907   95.9875   63.4389 C   0  0  0  0  0  0  0  0  0  0  0  0
   11.7369   96.7391   62.9063 C   0  0  0  0  0  0  0  0  0  0  0  0
   11.6678   96.9301   61.5652 N   0  0  0  0  0  0  0  0  0  0  0  0
   12.5791   96.4203   60.7348 C   0  0  0  0  0  0  0  0  0  0  0  0
   12.4670   96.6473   59.3230 N   0  0  0  0  0  0  0  0  0  0  0  0
   11.5466   97.6719   58.8780 C   0  0  0  0  0  0  0  0  0  0  0  0
   12.1239   98.4380   57.7424 C   0  0  0  0  0  0  0  0  0  0  0  0
   13.1275   99.3854   57.7656 C   0  0  0  0  0  0  0  0  0  0  0  0
   13.3630   99.8484   56.5205 N   0  0  0  0  0  0  0  0  0  0  0  0
   14.2295  100.7678   56.0133 C   0  0  0  0  0  0  0  0  0  0  0  0
   14.2821  101.0745   54.6797 C   0  0  0  0  0  0  0  0  0  0  0  0
   15.3994  102.2604   54.0243 Cl  0  0  0  0  0  0  0  0  0  0  0  0
   13.4262  100.4291   53.8158 C   0  0  0  0  0  0  0  0  0  0  0  0
   12.5640   99.5063   54.3621 C   0  0  0  0  0  0  0  0  0  0  0  0
   12.5095   99.1962   55.7042 C   0  0  0  0  0  0  0  0  0  0  0  0
   11.7618   98.3464   56.4348 N   0  0  0  0  0  0  0  0  0  0  0  0
   13.5861   95.7005   61.2572 N   0  0  0  0  0  0  0  0  0  0  0  0
  1  2  1  0
  2  3  1  0
  3  4  2  0
  4  5  1  0
  5  6  2  0
  6  7  1  0
  7  8  1  0
  8  9  1  0
  9 10  1  0
 10 11  2  0
 11 12  1  0
 12 13  1  0
 13 14  2  0
 14 15  1  0
 14 16  1  0
 16 17  2  0
 17 18  1  0
 18 19  2  0
  7 20  2  0
 20  3  1  0
 19 10  1  0
 18 12  1  0
M  END
$$$$
