
     RDKit          3D

 37 42  0  0  0  0  0  0  0  0999 V2000
   14.3803   90.1071   65.4917 C   0  0  0  0  0  0  0  0  0  0  0  0
   13.1586   90.7675   65.5548 O   0  0  0  0  0  0  0  0  0  0  0  0
   12.7162   91.7385   64.6733 C   0  0  0  0  0  0  0  0  0  0  0  0
   11.4083   91.8117   64.2517 C   0  0  0  0  0  0  0  0  0  0  0  0
   10.9802   92.7984   63.3618 C   0  0  0  0  0  0  0  0  0  0  0  0
   11.8504   93.7442   62.8664 C   0  0  0  0  0  0  0  0  0  0  0  0
   11.4282   94.7855   61.9362 C   0  0  0  0  0  0  0  0  0  0  0  0
   12.1411   95.8727   61.4786 C   0  0  0  0  0  0  0  0  0  0  0  0
   11.3894   96.6007   60.6269 N   0  0  0  0  0  0  0  0  0  0  0  0
   11.8118   97.8322   59.9381 C   0  0  0  0  0  0  0  0  0  0  0  0
   10.9324   98.0188   58.7216 C   0  0  0  0  0  0  0  0  0  0  0  0
   11.6086   99.1016   57.9079 C   0  0  0  0  0  0  0  0  0  0  0  0
   12.7654   98.5265   57.2931 N   0  0  0  0  0  0  0  0  0  0  0  0
   13.5687   99.4369   56.5427 C   0  0  0  0  0  0  0  0  0  0  0  0
   12.8197  100.0061   55.3787 C   0  0  0  0  0  0  0  0  0  0  0  0
   13.6684  100.0388   54.1913 N   0  0  0  0  0  0  0  0  0  0  0  0
   14.6765   99.0694   53.9277 C   0  0  0  0  0  0  0  0  0  0  0  0
   15.0034   98.0922   54.6483 O   0  0  0  0  0  0  0  0  0  0  0  0
   15.2913   99.4201   52.6213 C   0  0  0  0  0  0  0  0  0  0  0  0
   14.9917  100.8857   52.4995 C   0  0  0  0  0  0  0  0  0  0  0  0
   16.0065  101.6743   53.2108 C   0  0  0  0  0  0  0  0  0  0  0  0
   16.2711  101.5235   54.4379 O   0  0  0  0  0  0  0  0  0  0  0  0
   16.5772  102.5693   52.2905 N   0  0  0  0  0  0  0  0  0  0  0  0
   15.9568  102.3721   51.0163 C   0  0  0  0  0  0  0  0  0  0  0  0
   16.1767  103.0070   49.8090 C   0  0  0  0  0  0  0  0  0  0  0  0
   15.4595  102.6680   48.6604 C   0  0  0  0  0  0  0  0  0  0  0  0
   14.5186  101.6727   48.7702 C   0  0  0  0  0  0  0  0  0  0  0  0
   14.3009  101.0388   49.9802 C   0  0  0  0  0  0  0  0  0  0  0  0
   15.0094  101.3726   51.1183 C   0  0  0  0  0  0  0  0  0  0  0  0
   13.6497  100.9937   53.1323 C   0  0  0  0  0  0  0  0  0  0  0  0
   12.6701  101.7167   52.8722 O   0  0  0  0  0  0  0  0  0  0  0  0
   13.5591   97.6954   58.1295 C   0  0  0  0  0  0  0  0  0  0  0  0
   13.2523   97.7446   59.5860 C   0  0  0  0  0  0  0  0  0  0  0  0
   10.2240   95.9801   60.5520 N   0  0  0  0  0  0  0  0  0  0  0  0
   10.2298   94.8913   61.3294 N   0  0  0  0  0  0  0  0  0  0  0  0
   13.1626   93.6785   63.2837 C   0  0  0  0  0  0  0  0  0  0  0  0
   13.5870   92.7028   64.1634 C   0  0  0  0  0  0  0  0  0  0  0  0
  1  2  1  0
  2  3  1  0
  3  4  2  0
  4  5  1  0
  5  6  2  0
  6  7  1  0
  7  8  2  0
  8  9  1  0
  9 10  1  0
 10 11  1  0
 11 12  1  0
 12 13  1  0
 13 14  1  0
 14 15  1  0
 15 16  1  0
 16 17  1  0
 17 18  2  0
 17 19  1  0
 19 20  1  0
 20 21  1  0
 21 22  2  0
 21 23  1  0
 23 24  1  0
 24 25  2  0
 25 26  1  0
 26 27  2  0
 27 28  1  0
 28 29  2  0
 20 30  1  0
 30 31  2  0
 13 32  1  0
 32 33  1  0
  9 34  1  0
 34 35  2  0
  6 36  1  0
 36 37  2  0
 37  3  1  0
 35  7  1  0
 33 10  1  0
 30 16  1  0
 29 20  1  0
 29 24  1  0
M  END
$$$$
