
     RDKit          3D

 28 31  0  0  0  0  0  0  0  0999 V2000
  -10.0484   65.2424   27.5556 C   0  0  0  0  0  0  0  0  0  0  0  0
  -11.1372   64.5821   28.1596 O   0  0  0  0  0  0  0  0  0  0  0  0
  -10.9232   63.4315   28.8915 C   0  0  0  0  0  0  0  0  0  0  0  0
  -10.4776   63.4997   30.1952 C   0  0  0  0  0  0  0  0  0  0  0  0
  -10.2712   62.3619   30.9032 C   0  0  0  0  0  0  0  0  0  0  0  0
  -10.4923   61.1093   30.3654 C   0  0  0  0  0  0  0  0  0  0  0  0
  -10.2891   59.9309   31.1121 N   0  0  0  0  0  0  0  0  0  0  0  0
  -11.0651   58.7208   31.1927 C   0  0  0  0  0  0  0  0  0  0  0  0
  -12.1657   58.2501   30.9032 O   0  0  0  0  0  0  0  0  0  0  0  0
   -9.8504   58.1319   31.8715 C   0  0  0  0  0  0  0  0  0  0  0  0
  -10.1955   57.3065   32.9998 N   0  0  0  0  0  0  0  0  0  0  0  0
  -11.5816   57.6974   33.3815 C   0  0  0  0  0  0  0  0  0  0  0  0
  -12.2325   56.4462   33.9333 C   0  0  0  0  0  0  0  0  0  0  0  0
  -11.3444   56.1031   35.5034 S   0  0  0  0  0  0  0  0  0  0  0  0
   -9.5856   56.3269   35.1316 C   0  0  0  0  0  0  0  0  0  0  0  0
   -9.3344   57.4425   34.1357 C   0  0  0  0  0  0  0  0  0  0  0  0
   -9.2900   59.4713   32.0514 C   0  0  0  0  0  0  0  0  0  0  0  0
   -7.9223   59.7418   31.5760 C   0  0  0  0  0  0  0  0  0  0  0  0
   -7.2849   58.9228   30.6609 C   0  0  0  0  0  0  0  0  0  0  0  0
   -5.9899   59.1918   30.2417 C   0  0  0  0  0  0  0  0  0  0  0  0
   -5.3419   60.2952   30.7536 C   0  0  0  0  0  0  0  0  0  0  0  0
   -3.5580   60.6658   30.1757 Br  0  0  0  0  0  0  0  0  0  0  0  0
   -5.9653   61.1191   31.6659 C   0  0  0  0  0  0  0  0  0  0  0  0
   -7.2666   60.8422   32.0824 C   0  0  0  0  0  0  0  0  0  0  0  0
  -10.9395   61.0209   29.0593 C   0  0  0  0  0  0  0  0  0  0  0  0
  -11.1685   59.7686   28.4980 O   0  0  0  0  0  0  0  0  0  0  0  0
  -11.0118   59.4884   27.1384 C   0  0  0  0  0  0  0  0  0  0  0  0
  -11.1456   62.1842   28.3496 C   0  0  0  0  0  0  0  0  0  0  0  0
  1  2  1  0
  2  3  1  0
  3  4  2  0
  4  5  1  0
  5  6  2  0
  6  7  1  0
  7  8  1  0
  8  9  2  0
  8 10  1  0
 10 11  1  0
 11 12  1  0
 12 13  1  0
 13 14  1  0
 14 15  1  0
 15 16  1  0
 10 17  1  0
 17 18  1  0
 18 19  2  0
 19 20  1  0
 20 21  2  0
 21 22  1  0
 21 23  1  0
 23 24  2  0
  6 25  1  0
 25 26  1  0
 26 27  1  0
 25 28  2  0
 28  3  1  0
 17  7  1  0
 24 18  1  0
 16 11  1  0
M  END
$$$$
