
     RDKit          3D

 17 17  0  0  0  0  0  0  0  0999 V2000
   38.9405   80.6485   53.5467 C   0  0  0  0  0  0  0  0  0  0  0  0
   37.5411   81.1031   53.8469 C   0  0  0  0  0  0  0  0  0  0  0  0
   36.6178   81.0139   52.6571 C   0  0  0  0  0  0  0  0  0  0  0  0
   36.4078   82.3599   52.0029 C   0  0  0  0  0  0  0  0  0  0  0  0
   35.9488   82.1172   50.6228 N   0  0  0  0  0  0  0  0  0  0  0  0
   34.5524   82.0727   50.3366 C   0  0  0  0  0  0  0  0  0  0  0  0
   33.7281   82.9241   51.2197 C   0  0  0  0  0  0  0  0  0  0  0  0
   32.2857   82.6747   51.2775 C   0  0  0  0  0  0  0  0  0  0  0  0
   31.4535   83.3849   52.1091 C   0  0  0  0  0  0  0  0  0  0  0  0
   30.0959   83.1299   52.1617 C   0  0  0  0  0  0  0  0  0  0  0  0
   29.5494   82.1441   51.3682 C   0  0  0  0  0  0  0  0  0  0  0  0
   30.3653   81.3998   50.5087 C   0  0  0  0  0  0  0  0  0  0  0  0
   31.7099   81.6846   50.4864 C   0  0  0  0  0  0  0  0  0  0  0  0
   36.9639   81.9918   49.6535 C   0  0  0  0  0  0  0  0  0  0  0  0
   38.1811   82.1334   50.0130 O   0  0  0  0  0  0  0  0  0  0  0  0
   36.6254   81.6938   48.2511 C   0  0  0  0  0  0  0  0  0  0  0  0
   37.7697   81.9251   47.3702 N   0  0  0  0  0  0  0  0  0  0  0  0
  1  2  1  0
  2  3  1  0
  3  4  1  0
  4  5  1  0
  5  6  1  0
  6  7  1  0
  7  8  1  0
  8  9  2  0
  9 10  1  0
 10 11  2  0
 11 12  1  0
 12 13  2  0
  5 14  1  0
 14 15  2  0
 14 16  1  0
 16 17  1  0
 13  8  1  0
M  END
$$$$
