
     RDKit          3D

 17 19  0  0  0  0  0  0  0  0999 V2000
    9.7520  100.7370   57.1251 O   0  0  0  0  0  0  0  0  0  0  0  0
   11.0551  100.2722   57.0780 C   0  0  0  0  0  0  0  0  0  0  0  0
   11.9231  100.6264   56.1066 N   0  0  0  0  0  0  0  0  0  0  0  0
   13.1821  100.1612   56.0837 C   0  0  0  0  0  0  0  0  0  0  0  0
   14.1235  100.5386   55.0398 C   0  0  0  0  0  0  0  0  0  0  0  0
   15.4138  100.0750   55.0171 C   0  0  0  0  0  0  0  0  0  0  0  0
   16.2507  100.4626   54.0142 C   0  0  0  0  0  0  0  0  0  0  0  0
   15.7944  101.3254   53.0189 C   0  0  0  0  0  0  0  0  0  0  0  0
   14.5385  101.7820   53.0334 N   0  0  0  0  0  0  0  0  0  0  0  0
   13.7242  101.3908   54.0293 C   0  0  0  0  0  0  0  0  0  0  0  0
   13.6108   99.3210   57.0414 N   0  0  0  0  0  0  0  0  0  0  0  0
   12.8090   98.9148   58.0506 C   0  0  0  0  0  0  0  0  0  0  0  0
   13.2280   98.0562   59.0396 C   0  0  0  0  0  0  0  0  0  0  0  0
   12.3438   97.6927   60.0330 C   0  0  0  0  0  0  0  0  0  0  0  0
   11.0491   98.1667   60.0625 C   0  0  0  0  0  0  0  0  0  0  0  0
   10.6322   99.0286   59.0677 C   0  0  0  0  0  0  0  0  0  0  0  0
   11.5176   99.4004   58.0621 C   0  0  0  0  0  0  0  0  0  0  0  0
  1  2  1  0
  2  3  2  0
  3  4  1  0
  4  5  1  0
  5  6  2  0
  6  7  1  0
  7  8  2  0
  8  9  1  0
  9 10  2  0
  4 11  2  0
 11 12  1  0
 12 13  2  0
 13 14  1  0
 14 15  2  0
 15 16  1  0
 16 17  2  0
 17  2  1  0
 10  5  1  0
 17 12  1  0
M  END
$$$$
