
     RDKit          3D

 21 23  0  0  0  0  0  0  0  0999 V2000
   14.8347   47.1046   20.8574 C   0  0  0  0  0  0  0  0  0  0  0  0
   13.8998   47.5726   19.9043 O   0  0  0  0  0  0  0  0  0  0  0  0
   14.3351   48.4792   18.9544 C   0  0  0  0  0  0  0  0  0  0  0  0
   15.6530   48.8702   18.8990 C   0  0  0  0  0  0  0  0  0  0  0  0
   16.1022   49.7875   17.9403 C   0  0  0  0  0  0  0  0  0  0  0  0
   15.2247   50.3201   17.0263 C   0  0  0  0  0  0  0  0  0  0  0  0
   15.6538   51.2383   16.0485 N   0  0  0  0  0  0  0  0  0  0  0  0
   14.6670   52.0487   15.3749 C   0  0  0  0  0  0  0  0  0  0  0  0
   15.2256   53.2085   14.6175 C   0  0  0  0  0  0  0  0  0  0  0  0
   16.4864   52.9732   13.9954 N   0  0  0  0  0  0  0  0  0  0  0  0
   17.4579   53.9990   14.2474 C   0  0  0  0  0  0  0  0  0  0  0  0
   17.0357   55.2453   13.5341 C   0  0  0  0  0  0  0  0  0  0  0  0
   16.5207   55.2492   12.2781 N   0  0  0  0  0  0  0  0  0  0  0  0
   16.2481   56.5256   11.9377 C   0  0  0  0  0  0  0  0  0  0  0  0
   16.6146   57.3084   13.0316 C   0  0  0  0  0  0  0  0  0  0  0  0
   16.4826   58.7924   13.0880 C   0  0  0  0  0  0  0  0  0  0  0  0
   17.0733   56.4856   13.9416 O   0  0  0  0  0  0  0  0  0  0  0  0
   17.0530   51.6794   14.1884 C   0  0  0  0  0  0  0  0  0  0  0  0
   17.0443   51.3887   15.6975 C   0  0  0  0  0  0  0  0  0  0  0  0
   13.9140   49.9389   17.0727 C   0  0  0  0  0  0  0  0  0  0  0  0
   13.4937   49.0388   18.0199 C   0  0  0  0  0  0  0  0  0  0  0  0
  1  2  1  0
  2  3  1  0
  3  4  2  0
  4  5  1  0
  5  6  2  0
  6  7  1  0
  7  8  1  0
  8  9  1  0
  9 10  1  0
 10 11  1  0
 11 12  1  0
 12 13  2  0
 13 14  1  0
 14 15  2  0
 15 16  1  0
 15 17  1  0
 10 18  1  0
 18 19  1  0
  6 20  1  0
 20 21  2  0
 21  3  1  0
 19  7  1  0
 17 12  1  0
M  END
$$$$
