
     RDKit          3D

 15 16  0  0  0  0  0  0  0  0999 V2000
   15.3708   45.8233   21.3789 C   0  0  0  0  0  0  0  0  0  0  0  0
   15.7836   47.2643   21.3617 C   0  0  0  0  0  0  0  0  0  0  0  0
   14.7711   48.2016   20.8187 C   0  0  0  0  0  0  0  0  0  0  0  0
   15.1508   49.0578   19.7477 N   0  0  0  0  0  0  0  0  0  0  0  0
   16.4481   48.8303   19.2318 C   0  0  0  0  0  0  0  0  0  0  0  0
   16.6542   49.5401   17.9163 C   0  0  0  0  0  0  0  0  0  0  0  0
   17.9438   49.6606   17.4075 C   0  0  0  0  0  0  0  0  0  0  0  0
   18.1770   50.3060   16.2028 C   0  0  0  0  0  0  0  0  0  0  0  0
   17.1380   50.8431   15.4820 C   0  0  0  0  0  0  0  0  0  0  0  0
   15.8667   50.7216   15.9897 C   0  0  0  0  0  0  0  0  0  0  0  0
   14.8413   51.2433   15.2974 F   0  0  0  0  0  0  0  0  0  0  0  0
   15.6391   50.0686   17.2049 C   0  0  0  0  0  0  0  0  0  0  0  0
   14.2373   49.9915   17.6559 C   0  0  0  0  0  0  0  0  0  0  0  0
   13.8216   51.2787   17.9860 O   0  0  0  0  0  0  0  0  0  0  0  0
   14.0860   49.0087   18.7638 C   0  0  0  0  0  0  0  0  0  0  0  0
  1  2  1  0
  2  3  1  0
  3  4  1  0
  4  5  1  0
  5  6  1  0
  6  7  2  0
  7  8  1  0
  8  9  2  0
  9 10  1  0
 10 11  1  0
 10 12  2  0
 12 13  1  0
 13 14  1  0
 13 15  1  0
 15  4  1  0
 12  6  1  0
M  END
$$$$
