
     RDKit          3D

 33 34  0  0  0  0  0  0  0  0999 V2000
    1.0291   59.8741   32.0979 N   0  0  0  0  0  0  0  0  0  0  0  0
   -0.0960   59.9882   31.8720 C   0  0  0  0  0  0  0  0  0  0  0  0
   -1.5162   60.1577   31.5890 C   0  0  0  0  0  0  0  0  0  0  0  0
   -2.3306   60.8669   32.4345 C   0  0  0  0  0  0  0  0  0  0  0  0
   -3.6929   61.0208   32.1434 C   0  0  0  0  0  0  0  0  0  0  0  0
   -4.2461   60.4745   31.0193 C   0  0  0  0  0  0  0  0  0  0  0  0
   -5.6812   60.6438   30.7358 C   0  0  0  0  0  0  0  0  0  0  0  0
   -6.1881   61.9756   31.1359 C   0  0  0  0  0  0  0  0  0  0  0  0
   -7.4511   62.1456   31.6408 C   0  0  0  0  0  0  0  0  0  0  0  0
   -7.8931   63.4241   31.9994 C   0  0  0  0  0  0  0  0  0  0  0  0
   -7.0702   64.5133   31.8495 C   0  0  0  0  0  0  0  0  0  0  0  0
   -5.8258   64.3142   31.3472 C   0  0  0  0  0  0  0  0  0  0  0  0
   -4.8812   65.4445   31.1587 C   0  0  0  0  0  0  0  0  0  0  0  0
   -4.6170   66.0112   32.4769 N   0  0  0  0  0  0  0  0  0  0  0  0
   -3.5797   65.0257   30.5611 C   0  0  0  0  0  0  0  0  0  0  0  0
   -2.8165   66.0592   30.0845 F   0  0  0  0  0  0  0  0  0  0  0  0
   -5.5906   66.4923   30.3272 C   0  0  0  0  0  0  0  0  0  0  0  0
   -5.9173   67.5931   31.0944 F   0  0  0  0  0  0  0  0  0  0  0  0
   -5.3945   63.0784   30.9991 N   0  0  0  0  0  0  0  0  0  0  0  0
   -6.3972   59.6620   31.6960 C   0  0  0  0  0  0  0  0  0  0  0  0
   -5.7363   58.4746   31.7608 F   0  0  0  0  0  0  0  0  0  0  0  0
   -6.4264   60.2344   32.9741 F   0  0  0  0  0  0  0  0  0  0  0  0
   -7.6894   59.4409   31.3154 F   0  0  0  0  0  0  0  0  0  0  0  0
   -6.0256   60.2313   29.3438 C   0  0  0  0  0  0  0  0  0  0  0  0
   -5.7567   58.9455   29.0103 F   0  0  0  0  0  0  0  0  0  0  0  0
   -5.3046   61.0130   28.4079 F   0  0  0  0  0  0  0  0  0  0  0  0
   -7.3521   60.5251   29.0583 F   0  0  0  0  0  0  0  0  0  0  0  0
   -3.4233   59.7610   30.1705 C   0  0  0  0  0  0  0  0  0  0  0  0
   -2.0753   59.6041   30.4510 C   0  0  0  0  0  0  0  0  0  0  0  0
   -1.1846   58.8375   29.5437 C   0  0  0  0  0  0  0  0  0  0  0  0
   -1.8044   58.5927   28.3150 F   0  0  0  0  0  0  0  0  0  0  0  0
   -0.8546   57.6434   30.1474 F   0  0  0  0  0  0  0  0  0  0  0  0
   -0.0155   59.5467   29.2888 F   0  0  0  0  0  0  0  0  0  0  0  0
  1  2  3  0
  2  3  1  0
  3  4  2  0
  4  5  1  0
  5  6  2  0
  6  7  1  0
  7  8  1  0
  8  9  2  0
  9 10  1  0
 10 11  2  0
 11 12  1  0
 12 13  1  0
 13 14  1  0
 13 15  1  0
 15 16  1  0
 13 17  1  0
 17 18  1  0
 12 19  2  0
  7 20  1  0
 20 21  1  0
 20 22  1  0
 20 23  1  0
  7 24  1  0
 24 25  1  0
 24 26  1  0
 24 27  1  0
  6 28  1  0
 28 29  2  0
 29 30  1  0
 30 31  1  0
 30 32  1  0
 30 33  1  0
 29  3  1  0
 19  8  1  0
M  END
$$$$
