
     RDKit          3D

 21 22  0  0  0  0  0  0  0  0999 V2000
   32.4074   83.0575   45.4297 C   0  0  0  0  0  0  0  0  0  0  0  0
   32.0754   81.6526   45.8904 C   0  0  0  0  0  0  0  0  0  0  0  0
   31.5118   81.6322   47.2123 N   0  0  0  0  0  0  0  0  0  0  0  0
   32.2876   81.6840   48.3944 C   0  0  0  0  0  0  0  0  0  0  0  0
   33.5331   81.7034   48.2633 O   0  0  0  0  0  0  0  0  0  0  0  0
   31.7185   81.7149   49.7196 C   0  0  0  0  0  0  0  0  0  0  0  0
   30.3505   81.5360   49.9280 C   0  0  0  0  0  0  0  0  0  0  0  0
   29.8082   81.5673   51.2127 C   0  0  0  0  0  0  0  0  0  0  0  0
   30.6578   81.7799   52.2763 C   0  0  0  0  0  0  0  0  0  0  0  0
   29.9794   81.8218   53.9153 Cl  0  0  0  0  0  0  0  0  0  0  0  0
   31.9917   81.9531   52.0582 C   0  0  0  0  0  0  0  0  0  0  0  0
   32.5344   81.9249   50.8091 C   0  0  0  0  0  0  0  0  0  0  0  0
   33.9413   82.1168   50.6876 N   0  0  0  0  0  0  0  0  0  0  0  0
   34.8619   81.9521   51.7493 C   0  0  0  0  0  0  0  0  0  0  0  0
   34.4041   81.7503   52.9001 O   0  0  0  0  0  0  0  0  0  0  0  0
   36.3204   82.0112   51.5377 C   0  0  0  0  0  0  0  0  0  0  0  0
   37.1598   81.8631   52.6216 C   0  0  0  0  0  0  0  0  0  0  0  0
   38.4928   81.9051   52.5080 N   0  0  0  0  0  0  0  0  0  0  0  0
   39.0216   82.0994   51.2869 C   0  0  0  0  0  0  0  0  0  0  0  0
   38.1986   82.2493   50.1938 C   0  0  0  0  0  0  0  0  0  0  0  0
   36.8616   82.2024   50.3390 N   0  0  0  0  0  0  0  0  0  0  0  0
  1  2  1  0
  2  3  1  0
  3  4  1  0
  4  5  2  0
  4  6  1  0
  6  7  2  0
  7  8  1  0
  8  9  2  0
  9 10  1  0
  9 11  1  0
 11 12  2  0
 12 13  1  0
 13 14  1  0
 14 15  2  0
 14 16  1  0
 16 17  2  0
 17 18  1  0
 18 19  2  0
 19 20  1  0
 20 21  2  0
 12  6  1  0
 21 16  1  0
M  END
$$$$
