
     RDKit          3D

 23 25  0  0  0  0  0  0  0  0999 V2000
   14.6354   44.4344   19.5927 C   0  0  0  0  0  0  0  0  0  0  0  0
   15.0667   45.7952   20.0305 C   0  0  0  0  0  0  0  0  0  0  0  0
   15.7854   46.5727   18.9453 C   0  0  0  0  0  0  0  0  0  0  0  0
   16.3855   47.7975   19.6206 C   0  0  0  0  0  0  0  0  0  0  0  0
   17.0906   48.6456   18.7105 N   0  0  0  0  0  0  0  0  0  0  0  0
   18.3953   48.6021   18.5078 N   0  0  0  0  0  0  0  0  0  0  0  0
   18.7700   49.4812   17.6306 N   0  0  0  0  0  0  0  0  0  0  0  0
   17.6685   50.1453   17.2255 C   0  0  0  0  0  0  0  0  0  0  0  0
   17.4941   51.1663   16.3201 C   0  0  0  0  0  0  0  0  0  0  0  0
   16.2038   51.6527   16.1133 C   0  0  0  0  0  0  0  0  0  0  0  0
   16.0232   52.7369   15.1510 C   0  0  0  0  0  0  0  0  0  0  0  0
   15.1524   53.6251   15.3503 O   0  0  0  0  0  0  0  0  0  0  0  0
   16.7895   52.8518   13.9758 N   0  0  0  0  0  0  0  0  0  0  0  0
   16.8578   54.0420   13.1989 C   0  0  0  0  0  0  0  0  0  0  0  0
   18.0108   54.3531   12.4905 C   0  0  0  0  0  0  0  0  0  0  0  0
   18.0588   55.5114   11.7427 C   0  0  0  0  0  0  0  0  0  0  0  0
   16.9937   56.3842   11.6697 C   0  0  0  0  0  0  0  0  0  0  0  0
   15.8335   56.0686   12.3841 C   0  0  0  0  0  0  0  0  0  0  0  0
   14.6668   56.9873   12.3274 C   0  0  0  0  0  0  0  0  0  0  0  0
   15.7931   54.9114   13.1278 C   0  0  0  0  0  0  0  0  0  0  0  0
   15.1635   51.0954   16.8187 C   0  0  0  0  0  0  0  0  0  0  0  0
   15.3250   50.0639   17.7360 C   0  0  0  0  0  0  0  0  0  0  0  0
   16.6093   49.6025   17.9211 C   0  0  0  0  0  0  0  0  0  0  0  0
  1  2  1  0
  2  3  1  0
  3  4  1  0
  4  5  1  0
  5  6  1  0
  6  7  2  0
  7  8  1  0
  8  9  2  0
  9 10  1  0
 10 11  1  0
 11 12  2  0
 11 13  1  0
 13 14  1  0
 14 15  2  0
 15 16  1  0
 16 17  2  0
 17 18  1  0
 18 19  1  0
 18 20  2  0
 10 21  2  0
 21 22  1  0
 22 23  2  0
 23  5  1  0
 23  8  1  0
 20 14  1  0
M  END
$$$$
