
     RDKit          3D

 13 13  0  0  0  0  0  0  0  0999 V2000
   10.5391  101.3972   59.2586 C   0  0  0  0  0  0  0  0  0  0  0  0
   11.1877  100.0650   59.2006 C   0  0  0  0  0  0  0  0  0  0  0  0
   11.8883   99.6429   58.0943 C   0  0  0  0  0  0  0  0  0  0  0  0
   12.4921   98.4044   58.0536 C   0  0  0  0  0  0  0  0  0  0  0  0
   12.4289   97.5419   59.0913 C   0  0  0  0  0  0  0  0  0  0  0  0
   13.0238   96.2810   59.0978 O   0  0  0  0  0  0  0  0  0  0  0  0
   11.6967   97.9752   60.2528 C   0  0  0  0  0  0  0  0  0  0  0  0
   11.6893   97.0207   61.2543 N   0  0  0  0  0  0  0  0  0  0  0  0
   11.6821   96.0874   62.2336 C   0  0  0  0  0  0  0  0  0  0  0  0
   12.7567   94.9859   62.0499 C   0  0  0  0  0  0  0  0  0  0  0  0
   12.7774   94.1709   63.3242 C   0  0  0  0  0  0  0  0  0  0  0  0
   13.5878   92.9813   63.0227 N   0  0  0  0  0  0  0  0  0  0  0  0
   11.1395   99.1909   60.2165 N   0  0  0  0  0  0  0  0  0  0  0  0
  1  2  1  0
  2  3  2  0
  3  4  1  0
  4  5  2  0
  5  6  1  0
  5  7  1  0
  7  8  1  0
  8  9  1  0
  9 10  1  0
 10 11  1  0
 11 12  1  0
  7 13  2  0
 13  2  1  0
M  END
$$$$
