
     RDKit          3D

 30 32  0  0  0  0  0  0  0  0999 V2000
   37.5999   82.4583   51.4416 C   0  0  0  0  0  0  0  0  0  0  0  0
   36.1380   82.4144   51.5668 C   0  0  0  0  0  0  0  0  0  0  0  0
   35.4524   81.2874   51.9753 C   0  0  0  0  0  0  0  0  0  0  0  0
   34.0742   81.2692   52.0861 C   0  0  0  0  0  0  0  0  0  0  0  0
   33.3884   82.4079   51.7792 C   0  0  0  0  0  0  0  0  0  0  0  0
   31.9363   82.4949   51.8819 C   0  0  0  0  0  0  0  0  0  0  0  0
   31.1693   82.5229   50.7801 C   0  0  0  0  0  0  0  0  0  0  0  0
   31.8095   82.4525   49.5054 N   0  0  0  0  0  0  0  0  0  0  0  0
   31.2781   82.0151   48.2987 C   0  0  0  0  0  0  0  0  0  0  0  0
   30.2018   81.3871   48.2058 O   0  0  0  0  0  0  0  0  0  0  0  0
   31.9410   82.2523   46.9921 C   0  0  0  0  0  0  0  0  0  0  0  0
   31.2907   82.0112   45.7957 C   0  0  0  0  0  0  0  0  0  0  0  0
   31.9604   82.2534   44.6216 C   0  0  0  0  0  0  0  0  0  0  0  0
   33.2265   82.7168   44.5944 N   0  0  0  0  0  0  0  0  0  0  0  0
   33.8761   82.9574   45.7165 C   0  0  0  0  0  0  0  0  0  0  0  0
   33.2245   82.7220   46.9364 C   0  0  0  0  0  0  0  0  0  0  0  0
   29.6942   82.6459   50.8026 C   0  0  0  0  0  0  0  0  0  0  0  0
   29.2737   83.9827   50.2814 C   0  0  0  0  0  0  0  0  0  0  0  0
   29.0936   81.5954   50.0783 O   0  0  0  0  0  0  0  0  0  0  0  0
   29.0634   82.4697   52.1760 C   0  0  0  0  0  0  0  0  0  0  0  0
   28.7969   81.1570   52.4634 F   0  0  0  0  0  0  0  0  0  0  0  0
   27.8304   83.1267   52.1202 F   0  0  0  0  0  0  0  0  0  0  0  0
   29.8922   83.1191   53.2028 C   0  0  0  0  0  0  0  0  0  0  0  0
   29.9838   84.4672   53.0686 F   0  0  0  0  0  0  0  0  0  0  0  0
   29.3589   82.8011   54.4622 F   0  0  0  0  0  0  0  0  0  0  0  0
   31.2771   82.5246   53.1929 C   0  0  0  0  0  0  0  0  0  0  0  0
   31.9600   83.2532   54.1429 F   0  0  0  0  0  0  0  0  0  0  0  0
   31.2053   81.2351   53.7586 F   0  0  0  0  0  0  0  0  0  0  0  0
   34.0349   83.5795   51.3594 C   0  0  0  0  0  0  0  0  0  0  0  0
   35.4083   83.5456   51.2650 C   0  0  0  0  0  0  0  0  0  0  0  0
  1  2  1  0
  2  3  2  0
  3  4  1  0
  4  5  2  0
  5  6  1  0
  6  7  2  0
  7  8  1  0
  8  9  1  0
  9 10  2  0
  9 11  1  0
 11 12  2  0
 12 13  1  0
 13 14  2  0
 14 15  1  0
 15 16  2  0
  7 17  1  0
 17 18  1  0
 17 19  1  0
 17 20  1  0
 20 21  1  0
 20 22  1  0
 20 23  1  0
 23 24  1  0
 23 25  1  0
 23 26  1  0
 26 27  1  0
 26 28  1  0
  5 29  1  0
 29 30  2  0
 30  2  1  0
 26  6  1  0
 16 11  1  0
M  END
$$$$
