
     RDKit          3D

 26 27  0  0  0  0  0  0  0  0999 V2000
   18.3522   43.9907   23.6781 C   0  0  0  0  0  0  0  0  0  0  0  0
   17.4124   44.5669   22.6702 C   0  0  0  0  0  0  0  0  0  0  0  0
   18.0553   44.8026   21.3320 C   0  0  0  0  0  0  0  0  0  0  0  0
   17.0366   45.1946   20.2825 C   0  0  0  0  0  0  0  0  0  0  0  0
   17.0811   46.6551   19.9634 C   0  0  0  0  0  0  0  0  0  0  0  0
   16.1241   47.0430   18.8648 C   0  0  0  0  0  0  0  0  0  0  0  0
   15.9945   48.5498   18.7465 C   0  0  0  0  0  0  0  0  0  0  0  0
   17.0256   49.1308   17.8092 C   0  0  0  0  0  0  0  0  0  0  0  0
   16.6925   50.5480   17.6281 N   0  0  0  0  0  0  0  0  0  0  0  0
   15.7159   51.0269   16.7366 C   0  0  0  0  0  0  0  0  0  0  0  0
   14.5117   50.6104   16.8484 O   0  0  0  0  0  0  0  0  0  0  0  0
   15.9661   51.9801   15.6680 C   0  0  0  0  0  0  0  0  0  0  0  0
   16.6458   51.5382   14.5117 N   0  0  0  0  0  0  0  0  0  0  0  0
   17.8496   52.1847   14.1431 C   0  0  0  0  0  0  0  0  0  0  0  0
   17.8204   52.7221   12.7052 C   0  0  0  0  0  0  0  0  0  0  0  0
   16.6036   53.4722   12.5589 N   0  0  0  0  0  0  0  0  0  0  0  0
   16.5200   54.7877   12.0489 C   0  0  0  0  0  0  0  0  0  0  0  0
   17.4096   55.2663   11.0912 C   0  0  0  0  0  0  0  0  0  0  0  0
   17.3249   56.5502   10.5947 C   0  0  0  0  0  0  0  0  0  0  0  0
   16.3462   57.4132   11.0342 C   0  0  0  0  0  0  0  0  0  0  0  0
   15.4564   56.9585   11.9815 C   0  0  0  0  0  0  0  0  0  0  0  0
   15.5450   55.6563   12.4828 C   0  0  0  0  0  0  0  0  0  0  0  0
   14.6521   55.1912   13.4375 O   0  0  0  0  0  0  0  0  0  0  0  0
   14.4516   55.9707   14.5960 C   0  0  0  0  0  0  0  0  0  0  0  0
   15.3722   52.8306   12.9528 C   0  0  0  0  0  0  0  0  0  0  0  0
   15.7104   51.4315   13.4134 C   0  0  0  0  0  0  0  0  0  0  0  0
  1  2  1  0
  2  3  1  0
  3  4  1  0
  4  5  1  0
  5  6  1  0
  6  7  1  0
  7  8  1  0
  8  9  1  0
  9 10  1  0
 10 11  2  0
 10 12  1  0
 12 13  1  0
 13 14  1  0
 14 15  1  0
 15 16  1  0
 16 17  1  0
 17 18  2  0
 18 19  1  0
 19 20  2  0
 20 21  1  0
 21 22  2  0
 22 23  1  0
 23 24  1  0
 16 25  1  0
 25 26  1  0
 26 13  1  0
 22 17  1  0
M  END
$$$$
