
     RDKit          3D

 34 39  0  0  0  0  0  0  0  0999 V2000
   34.6836   84.5443   50.9021 C   0  0  0  0  0  0  0  0  0  0  0  0
   35.4130   83.2782   50.9368 C   0  0  0  0  0  0  0  0  0  0  0  0
   35.7765   82.5016   49.9265 C   0  0  0  0  0  0  0  0  0  0  0  0
   35.0190   82.2957   48.7327 C   0  0  2  0  0  0  0  0  0  0  0  0
   35.5469   80.9758   48.2388 N   0  0  0  0  0  0  0  0  0  0  0  0
   36.9655   81.0936   48.5195 C   0  0  2  0  0  0  0  0  0  0  0  0
   37.7744   79.9304   48.2492 C   0  0  0  0  0  0  0  0  0  0  0  0
   37.3271   78.6113   48.3887 C   0  0  0  0  0  0  0  0  0  0  0  0
   38.1396   77.5272   48.1227 C   0  0  0  0  0  0  0  0  0  0  0  0
   39.4233   77.7060   47.7091 C   0  0  0  0  0  0  0  0  0  0  0  0
   40.3469   76.5688   47.4068 C   0  0  0  0  0  0  0  0  0  0  0  0
   39.9155   78.9770   47.5548 C   0  0  0  0  0  0  0  0  0  0  0  0
   39.0919   80.0393   47.8244 C   0  0  0  0  0  0  0  0  0  0  0  0
   37.0572   81.7192   49.8782 C   0  0  1  0  0  0  0  0  0  0  0  0
   38.2600   82.5506   49.8789 C   0  0  0  0  0  0  0  0  0  0  0  0
   38.5140   83.5125   49.0791 O   0  0  0  0  0  0  0  0  0  0  0  0
   39.1139   82.1384   50.8989 N   0  0  0  0  0  0  0  0  0  0  0  0
   38.4472   81.0636   51.5606 C   0  0  0  0  0  0  0  0  0  0  0  0
   38.8699   80.3047   52.6669 C   0  0  0  0  0  0  0  0  0  0  0  0
   38.0998   79.2975   53.2079 C   0  0  0  0  0  0  0  0  0  0  0  0
   36.8784   79.0755   52.5944 C   0  0  0  0  0  0  0  0  0  0  0  0
   35.8819   77.7983   53.2671 Cl  0  0  0  0  0  0  0  0  0  0  0  0
   36.4638   79.8128   51.5166 C   0  0  0  0  0  0  0  0  0  0  0  0
   37.2436   80.8185   50.9834 C   0  0  0  0  0  0  0  0  0  0  0  0
   35.1042   83.2453   47.6595 C   0  0  0  0  0  0  0  0  0  0  0  0
   36.0981   83.9228   47.1999 O   0  0  0  0  0  0  0  0  0  0  0  0
   33.8360   83.3778   47.0898 N   0  0  0  0  0  0  0  0  0  0  0  0
   32.9096   82.5794   47.8540 C   0  0  0  0  0  0  0  0  0  0  0  0
   31.5194   82.4383   47.6724 C   0  0  0  0  0  0  0  0  0  0  0  0
   30.8448   81.6526   48.5603 C   0  0  0  0  0  0  0  0  0  0  0  0
   31.5298   81.0191   49.6064 C   0  0  0  0  0  0  0  0  0  0  0  0
   30.4988   79.9259   50.8174 Br  0  0  0  0  0  0  0  0  0  0  0  0
   32.8668   81.1735   49.7544 C   0  0  0  0  0  0  0  0  0  0  0  0
   33.5883   81.9744   48.8570 C   0  0  0  0  0  0  0  0  0  0  0  0
  1  2  1  0
  2  3  2  0
  3  4  1  0
  4  5  1  6
  5  6  1  0
  6  7  1  1
  7  8  2  0
  8  9  1  0
  9 10  2  0
 10 11  1  0
 10 12  1  0
 12 13  2  0
  6 14  1  0
 14 15  1  6
 15 16  2  0
 15 17  1  0
 17 18  1  0
 18 19  2  0
 19 20  1  0
 20 21  2  0
 21 22  1  0
 21 23  1  0
 23 24  2  0
  4 25  1  0
 25 26  2  0
 25 27  1  0
 27 28  1  0
 28 29  2  0
 29 30  1  0
 30 31  2  0
 31 32  1  0
 31 33  1  0
 33 34  2  0
 14  3  1  0
 24 18  1  0
 34 28  1  0
 34  4  1  0
 13  7  1  0
 24 14  1  0
M  END
$$$$
