
     RDKit          3D

 23 25  0  0  0  0  0  0  0  0999 V2000
   42.4735   80.4367   54.2242 C   0  0  0  0  0  0  0  0  0  0  0  0
   41.0350   80.1616   53.9725 C   0  0  0  0  0  0  0  0  0  0  0  0
   40.4468   80.7414   52.7231 C   0  0  0  0  0  0  0  0  0  0  0  0
   40.0933   82.1065   52.7331 N   0  0  0  0  0  0  0  0  0  0  0  0
   40.3896   82.8776   51.5900 C   0  0  0  0  0  0  0  0  0  0  0  0
   39.5931   82.3708   50.3819 C   0  0  0  0  0  0  0  0  0  0  0  0
   38.2016   82.3679   50.7919 N   0  0  0  0  0  0  0  0  0  0  0  0
   37.1981   81.8302   49.9442 C   0  0  0  0  0  0  0  0  0  0  0  0
   37.5374   81.3203   48.8455 O   0  0  0  0  0  0  0  0  0  0  0  0
   35.8044   81.8862   50.3742 C   0  0  0  0  0  0  0  0  0  0  0  0
   35.4394   81.8022   51.7008 C   0  0  0  0  0  0  0  0  0  0  0  0
   34.0887   81.8625   52.0561 C   0  0  0  0  0  0  0  0  0  0  0  0
   33.1043   82.0055   51.0986 C   0  0  0  0  0  0  0  0  0  0  0  0
   31.6846   82.0723   51.4249 C   0  0  0  0  0  0  0  0  0  0  0  0
   31.1658   81.4063   52.5290 C   0  0  0  0  0  0  0  0  0  0  0  0
   29.8229   81.4714   52.8361 C   0  0  0  0  0  0  0  0  0  0  0  0
   28.9399   82.1952   52.0666 C   0  0  0  0  0  0  0  0  0  0  0  0
   29.4357   82.8720   50.9533 C   0  0  0  0  0  0  0  0  0  0  0  0
   30.7805   82.7876   50.6737 C   0  0  0  0  0  0  0  0  0  0  0  0
   33.5127   82.0857   49.7846 C   0  0  0  0  0  0  0  0  0  0  0  0
   34.8283   82.0304   49.3959 C   0  0  0  0  0  0  0  0  0  0  0  0
   37.8769   82.9248   52.0767 C   0  0  0  0  0  0  0  0  0  0  0  0
   38.7108   82.2522   53.1590 C   0  0  0  0  0  0  0  0  0  0  0  0
  1  2  1  0
  2  3  1  0
  3  4  1  0
  4  5  1  0
  5  6  1  0
  6  7  1  0
  7  8  1  0
  8  9  2  0
  8 10  1  0
 10 11  2  0
 11 12  1  0
 12 13  2  0
 13 14  1  0
 14 15  2  0
 15 16  1  0
 16 17  2  0
 17 18  1  0
 18 19  2  0
 13 20  1  0
 20 21  2  0
  7 22  1  0
 22 23  1  0
 23  4  1  0
 21 10  1  0
 19 14  1  0
M  END
$$$$
