
     RDKit          3D

 19 20  0  0  0  0  0  0  0  0999 V2000
   -8.3992   60.5044   30.8185 C   0  0  0  0  0  0  0  0  0  0  0  0
   -7.1127   59.7823   30.5580 C   0  0  0  0  0  0  0  0  0  0  0  0
   -6.0160   60.6351   30.7858 O   0  0  0  0  0  0  0  0  0  0  0  0
   -4.7035   60.2274   30.6919 C   0  0  0  0  0  0  0  0  0  0  0  0
   -4.2960   58.9515   30.4021 C   0  0  0  0  0  0  0  0  0  0  0  0
   -2.9534   58.5872   30.3180 C   0  0  0  0  0  0  0  0  0  0  0  0
   -1.9928   59.5468   30.5346 C   0  0  0  0  0  0  0  0  0  0  0  0
   -0.1597   59.0360   30.4168 Br  0  0  0  0  0  0  0  0  0  0  0  0
   -2.3920   60.8354   30.8273 C   0  0  0  0  0  0  0  0  0  0  0  0
   -3.7239   61.1745   30.9057 C   0  0  0  0  0  0  0  0  0  0  0  0
   -4.0707   62.5418   31.2161 N   0  0  0  0  0  0  0  0  0  0  0  0
   -3.0799   63.5580   31.2528 C   0  0  0  0  0  0  0  0  0  0  0  0
   -1.8648   63.1972   31.1696 O   0  0  0  0  0  0  0  0  0  0  0  0
   -3.3826   64.9772   31.3795 C   0  0  0  0  0  0  0  0  0  0  0  0
   -4.7053   65.3901   31.4610 C   0  0  0  0  0  0  0  0  0  0  0  0
   -4.9809   66.7382   31.5809 C   0  0  0  0  0  0  0  0  0  0  0  0
   -4.0106   67.6744   31.6222 N   0  0  0  0  0  0  0  0  0  0  0  0
   -2.7390   67.2916   31.5450 C   0  0  0  0  0  0  0  0  0  0  0  0
   -2.4248   65.9664   31.4256 C   0  0  0  0  0  0  0  0  0  0  0  0
  1  2  1  0
  2  3  1  0
  3  4  1  0
  4  5  2  0
  5  6  1  0
  6  7  2  0
  7  8  1  0
  7  9  1  0
  9 10  2  0
 10 11  1  0
 11 12  1  0
 12 13  2  0
 12 14  1  0
 14 15  2  0
 15 16  1  0
 16 17  2  0
 17 18  1  0
 18 19  2  0
 10  4  1  0
 19 14  1  0
M  END
$$$$
