
     RDKit          3D

 19 20  0  0  0  0  0  0  0  0999 V2000
   13.4057   93.6092   63.3049 C   0  0  0  0  0  0  0  0  0  0  0  0
   12.6156   94.6080   62.7962 O   0  0  0  0  0  0  0  0  0  0  0  0
   13.1171   95.8924   62.9446 C   0  0  0  0  0  0  0  0  0  0  0  0
   13.4959   96.5201   61.6448 C   0  0  0  0  0  0  0  0  0  0  0  0
   12.3065   96.7829   60.7194 C   0  0  0  0  0  0  0  0  0  0  0  0
   12.7416   97.1162   59.3684 C   0  0  0  0  0  0  0  0  0  0  0  0
   13.4540   96.1843   58.8016 O   0  0  0  0  0  0  0  0  0  0  0  0
   12.5026   98.2832   58.6236 N   0  0  0  0  0  0  0  0  0  0  0  0
   11.4146   99.2013   58.7429 C   0  0  0  0  0  0  0  0  0  0  0  0
   11.5419  100.2557   59.8989 C   0  0  0  0  0  0  0  0  0  0  0  0
   11.4406  100.6239   58.4445 C   0  0  0  0  0  0  0  0  0  0  0  0
   13.4959   98.6173   57.5776 C   0  0  1  0  0  0  0  0  0  0  0  0
   13.0617   98.0488   56.2473 C   0  0  0  0  0  0  0  0  0  0  0  0
   14.0189   98.5943   55.2055 C   0  0  0  0  0  0  0  0  0  0  0  0
   13.3004   99.6215   54.4068 C   0  0  0  0  0  0  0  0  0  0  0  0
   12.8367  100.8083   55.1986 C   0  0  0  0  0  0  0  0  0  0  0  0
   13.4748  100.9701   56.4544 N   0  0  0  0  0  0  0  0  0  0  0  0
   13.6195  100.0743   57.5407 C   0  0  0  0  0  0  0  0  0  0  0  0
   13.8988  100.5894   58.6631 O   0  0  0  0  0  0  0  0  0  0  0  0
  1  2  1  0
  2  3  1  0
  3  4  1  0
  4  5  1  0
  5  6  1  0
  6  7  2  0
  6  8  1  0
  8  9  1  0
  9 10  1  0
 10 11  1  0
 12  8  1  1
 12 13  1  0
 13 14  1  0
 14 15  1  0
 15 16  1  0
 16 17  1  0
 17 18  1  0
 18 19  2  0
 11  9  1  0
 18 12  1  0
M  END
$$$$
