
     RDKit          3D

 33 37  0  0  0  0  0  0  0  0999 V2000
   21.7037   52.9506   11.4335 N   0  0  0  0  0  0  0  0  0  0  0  0
   20.8078   52.9047   12.3416 C   0  0  0  0  0  0  0  0  0  0  0  0
   20.9236   52.0170   13.4259 N   0  0  0  0  0  0  0  0  0  0  0  0
   19.6554   53.7815   12.2490 C   0  0  0  0  0  0  0  0  0  0  0  0
   19.7946   54.9578   11.5597 C   0  0  0  0  0  0  0  0  0  0  0  0
   18.7210   55.7948   11.4632 C   0  0  0  0  0  0  0  0  0  0  0  0
   17.4967   55.4755   12.0489 C   0  0  0  0  0  0  0  0  0  0  0  0
   16.4305   56.3628   11.9184 C   0  0  0  0  0  0  0  0  0  0  0  0
   15.2253   56.0579   12.4860 C   0  0  0  0  0  0  0  0  0  0  0  0
   14.0482   56.9475   12.3783 C   0  0  0  0  0  0  0  0  0  0  0  0
   14.1467   58.1763   11.9123 C   0  0  0  0  0  0  0  0  0  0  0  0
   13.0298   59.1364   11.7668 C   0  0  0  0  0  0  0  0  0  0  0  0
   11.7963   58.5100   11.9464 O   0  0  0  0  0  0  0  0  0  0  0  0
   11.8171   57.6770   13.0427 C   0  0  0  0  0  0  0  0  0  0  0  0
   12.7043   56.4792   12.8067 C   0  0  0  0  0  0  0  0  0  0  0  0
   15.0790   54.8660   13.1864 C   0  0  0  0  0  0  0  0  0  0  0  0
   16.1053   53.9638   13.3382 C   0  0  0  0  0  0  0  0  0  0  0  0
   15.9942   52.7355   14.0252 N   0  0  0  0  0  0  0  0  0  0  0  0
   15.6931   52.6292   15.3973 C   0  0  0  0  0  0  0  0  0  0  0  0
   15.2691   53.6116   16.0672 O   0  0  0  0  0  0  0  0  0  0  0  0
   15.8633   51.3454   16.1196 C   0  0  0  0  0  0  0  0  0  0  0  0
   16.8744   50.4601   15.9003 C   0  0  0  0  0  0  0  0  0  0  0  0
   16.9714   49.2740   16.6158 C   0  0  0  0  0  0  0  0  0  0  0  0
   16.0278   48.9820   17.5685 C   0  0  0  0  0  0  0  0  0  0  0  0
   14.9879   49.8464   17.8250 C   0  0  0  0  0  0  0  0  0  0  0  0
   13.9960   49.5485   18.8203 N   0  0  0  0  0  0  0  0  0  0  0  0
   13.9221   48.4450   19.5731 C   0  0  0  0  0  0  0  0  0  0  0  0
   12.8238   48.5247   20.4179 C   0  0  0  0  0  0  0  0  0  0  0  0
   12.2427   49.6999   20.1539 N   0  0  0  0  0  0  0  0  0  0  0  0
   12.9610   50.3176   19.1809 C   0  0  0  0  0  0  0  0  0  0  0  0
   14.9216   51.0102   17.0997 C   0  0  0  0  0  0  0  0  0  0  0  0
   17.3418   54.2926   12.7472 C   0  0  0  0  0  0  0  0  0  0  0  0
   18.4410   53.4729   12.8255 C   0  0  0  0  0  0  0  0  0  0  0  0
  1  2  2  0
  2  3  1  0
  2  4  1  0
  4  5  2  0
  5  6  1  0
  6  7  2  0
  7  8  1  0
  8  9  2  0
  9 10  1  0
 10 11  2  0
 11 12  1  0
 12 13  1  0
 13 14  1  0
 14 15  1  0
  9 16  1  0
 16 17  2  0
 17 18  1  0
 18 19  1  0
 19 20  2  0
 19 21  1  0
 21 22  2  0
 22 23  1  0
 23 24  2  0
 24 25  1  0
 25 26  1  0
 26 27  1  0
 27 28  2  0
 28 29  1  0
 29 30  2  0
 25 31  2  0
 17 32  1  0
 32 33  2  0
 33  4  1  0
 32  7  1  0
 15 10  1  0
 31 21  1  0
 30 26  1  0
M  END
$$$$
