
     RDKit          3D

 20 22  0  0  0  0  0  0  0  0999 V2000
   15.6862   54.6399   13.1748 C   0  0  0  0  0  0  0  0  0  0  0  0
   15.6960   53.4063   14.0218 C   0  0  0  0  0  0  0  0  0  0  0  0
   15.1348   52.2382   13.6084 C   0  0  0  0  0  0  0  0  0  0  0  0
   15.1715   51.1130   14.4401 C   0  0  0  0  0  0  0  0  0  0  0  0
   15.7679   51.1592   15.6802 C   0  0  0  0  0  0  0  0  0  0  0  0
   15.7885   49.9444   16.5143 C   0  0  0  0  0  0  0  0  0  0  0  0
   15.5106   50.1867   17.9823 C   0  0  0  0  0  0  0  0  0  0  0  0
   14.1035   50.3976   18.1943 N   0  0  0  0  0  0  0  0  0  0  0  0
   13.5068   49.7383   19.2919 C   0  0  0  0  0  0  0  0  0  0  0  0
   13.8385   48.2574   19.2891 C   0  0  0  0  0  0  0  0  0  0  0  0
   15.3219   48.2118   19.4955 C   0  0  0  0  0  0  0  0  0  0  0  0
   15.8499   47.2489   20.3107 C   0  0  0  0  0  0  0  0  0  0  0  0
   15.0647   46.3440   20.9059 F   0  0  0  0  0  0  0  0  0  0  0  0
   17.2358   47.2017   20.5318 C   0  0  0  0  0  0  0  0  0  0  0  0
   18.0295   48.1340   19.9167 C   0  0  0  0  0  0  0  0  0  0  0  0
   17.4653   49.1107   19.0858 C   0  0  0  0  0  0  0  0  0  0  0  0
   16.1193   49.1742   18.8565 C   0  0  0  0  0  0  0  0  0  0  0  0
   16.3284   52.3551   16.0735 C   0  0  0  0  0  0  0  0  0  0  0  0
   16.3076   53.4853   15.2722 C   0  0  0  0  0  0  0  0  0  0  0  0
   16.8869   54.7140   15.6836 N   0  0  0  0  0  0  0  0  0  0  0  0
  1  2  1  0
  2  3  2  0
  3  4  1  0
  4  5  2  0
  5  6  1  0
  6  7  1  0
  7  8  1  0
  8  9  1  0
  9 10  1  0
 10 11  1  0
 11 12  2  0
 12 13  1  0
 12 14  1  0
 14 15  2  0
 15 16  1  0
 16 17  2  0
  5 18  1  0
 18 19  2  0
 19 20  1  0
 19  2  1  0
 17  7  1  0
 17 11  1  0
M  END
$$$$
