
     RDKit          3D

 20 22  0  0  0  0  0  0  0  0999 V2000
    9.5271   96.8558   58.8393 C   0  0  0  0  0  0  0  0  0  0  0  0
   10.9518   97.3321   59.1005 C   0  0  0  0  0  0  0  0  0  0  0  0
   11.1706   97.2547   60.5331 N   0  0  0  0  0  0  0  0  0  0  0  0
   12.1427   96.3341   61.0077 C   0  0  0  0  0  0  0  0  0  0  0  0
   12.6482   95.5106   60.2026 O   0  0  0  0  0  0  0  0  0  0  0  0
   12.5641   96.3336   62.4297 C   0  0  0  0  0  0  0  0  0  0  0  0
   14.0540   96.0808   62.4798 C   0  0  0  0  0  0  0  0  0  0  0  0
   14.1173   94.6466   62.8292 C   0  0  0  0  0  0  0  0  0  0  0  0
   15.1541   93.7525   62.8675 C   0  0  0  0  0  0  0  0  0  0  0  0
   14.9683   92.4425   63.2305 C   0  0  0  0  0  0  0  0  0  0  0  0
   13.6992   91.9950   63.5716 C   0  0  0  0  0  0  0  0  0  0  0  0
   12.6256   92.8790   63.5426 C   0  0  0  0  0  0  0  0  0  0  0  0
   12.8619   94.1885   63.1706 C   0  0  0  0  0  0  0  0  0  0  0  0
   11.9525   95.2338   63.0713 O   0  0  0  0  0  0  0  0  0  0  0  0
   11.1328   98.7105   58.5901 C   0  0  0  0  0  0  0  0  0  0  0  0
   11.3389   98.9663   57.2542 C   0  0  0  0  0  0  0  0  0  0  0  0
   11.5048  100.2386   56.7918 C   0  0  0  0  0  0  0  0  0  0  0  0
   11.4694  101.2906   57.6507 N   0  0  0  0  0  0  0  0  0  0  0  0
   11.2702  101.0722   58.9586 C   0  0  0  0  0  0  0  0  0  0  0  0
   11.1004   99.8112   59.4555 C   0  0  0  0  0  0  0  0  0  0  0  0
  1  2  1  0
  2  3  1  0
  3  4  1  0
  4  5  2  0
  4  6  1  0
  6  7  1  0
  7  8  1  0
  8  9  2  0
  9 10  1  0
 10 11  2  0
 11 12  1  0
 12 13  2  0
 13 14  1  0
  2 15  1  0
 15 16  2  0
 16 17  1  0
 17 18  2  0
 18 19  1  0
 19 20  2  0
 14  6  1  0
 20 15  1  0
 13  8  1  0
M  END
$$$$
