
     RDKit          3D

 23 25  0  0  0  0  0  0  0  0999 V2000
   12.6596   48.8725   19.5435 C   0  0  0  0  0  0  0  0  0  0  0  0
   14.0044   49.1060   19.3916 O   0  0  0  0  0  0  0  0  0  0  0  0
   14.5804   48.4221   18.3458 C   0  0  0  0  0  0  0  0  0  0  0  0
   15.5721   49.2111   17.5949 C   0  0  0  0  0  0  0  0  0  0  0  0
   16.8784   48.7920   17.5344 C   0  0  0  0  0  0  0  0  0  0  0  0
   17.8077   49.5312   16.8309 C   0  0  0  0  0  0  0  0  0  0  0  0
   17.4099   50.6883   16.1938 C   0  0  0  0  0  0  0  0  0  0  0  0
   16.1075   51.1350   16.2357 C   0  0  0  0  0  0  0  0  0  0  0  0
   15.7325   52.3480   15.5573 C   0  0  0  0  0  0  0  0  0  0  0  0
   14.5246   52.7503   15.6019 O   0  0  0  0  0  0  0  0  0  0  0  0
   16.6214   53.1602   14.8195 N   0  0  0  0  0  0  0  0  0  0  0  0
   16.1860   54.3573   14.1952 C   0  0  0  0  0  0  0  0  0  0  0  0
   14.8886   54.4875   13.6891 C   0  0  0  0  0  0  0  0  0  0  0  0
   14.4629   55.6510   13.0814 C   0  0  0  0  0  0  0  0  0  0  0  0
   15.3718   56.6812   12.9941 C   0  0  0  0  0  0  0  0  0  0  0  0
   16.6501   56.5574   13.4911 C   0  0  0  0  0  0  0  0  0  0  0  0
   17.0883   55.3946   14.1028 C   0  0  0  0  0  0  0  0  0  0  0  0
   18.4074   55.2606   14.6181 N   0  0  0  0  0  0  0  0  0  0  0  0
   19.2063   56.2753   14.9923 C   0  0  0  0  0  0  0  0  0  0  0  0
   20.3952   55.7740   15.4350 N   0  0  0  0  0  0  0  0  0  0  0  0
   20.2933   54.4601   15.3200 N   0  0  0  0  0  0  0  0  0  0  0  0
   19.0852   54.1591   14.8241 N   0  0  0  0  0  0  0  0  0  0  0  0
   15.1974   50.3843   16.9418 C   0  0  0  0  0  0  0  0  0  0  0  0
  1  2  1  0
  2  3  1  0
  3  4  1  0
  4  5  2  0
  5  6  1  0
  6  7  2  0
  7  8  1  0
  8  9  1  0
  9 10  2  0
  9 11  1  0
 11 12  1  0
 12 13  2  0
 13 14  1  0
 14 15  2  0
 15 16  1  0
 16 17  2  0
 17 18  1  0
 18 19  1  0
 19 20  2  0
 20 21  1  0
 21 22  2  0
  8 23  2  0
 23  4  1  0
 17 12  1  0
 22 18  1  0
M  END
$$$$
