
     RDKit          3D

 33 36  0  0  0  0  0  0  0  0999 V2000
   16.6058   54.0903   10.2565 C   0  0  0  0  0  0  0  0  0  0  0  0
   16.3302   55.3524   10.9802 C   0  0  0  0  0  0  0  0  0  0  0  0
   16.2678   56.5507   10.2579 C   0  0  0  0  0  0  0  0  0  0  0  0
   16.0145   57.6880   10.9110 N   0  0  0  0  0  0  0  0  0  0  0  0
   15.8261   57.6749   12.2229 C   0  0  0  0  0  0  0  0  0  0  0  0
   15.5606   58.8298   12.9419 O   0  0  0  0  0  0  0  0  0  0  0  0
   14.3965   59.5577   12.6955 C   0  0  0  0  0  0  0  0  0  0  0  0
   13.8900   60.2704   13.9312 C   0  0  0  0  0  0  0  0  0  0  0  0
   12.7815   61.2023   13.5510 C   0  0  0  0  0  0  0  0  0  0  0  0
   11.7590   60.3835   12.7648 C   0  0  0  0  0  0  0  0  0  0  0  0
   12.1752   60.5190   11.3342 C   0  0  0  0  0  0  0  0  0  0  0  0
   13.4080   61.4209   11.4073 C   0  0  0  0  0  0  0  0  0  0  0  0
   14.6069   60.5203   11.5368 C   0  0  0  0  0  0  0  0  0  0  0  0
   13.1680   62.1910   12.5914 N   0  0  0  0  0  0  0  0  0  0  0  0
   14.2820   62.9909   12.9966 C   0  0  0  0  0  0  0  0  0  0  0  0
   15.8841   56.5156   12.9383 N   0  0  0  0  0  0  0  0  0  0  0  0
   16.1347   55.3394   12.3422 C   0  0  0  0  0  0  0  0  0  0  0  0
   16.1806   54.1384   13.1588 C   0  0  0  0  0  0  0  0  0  0  0  0
   16.1221   52.8675   12.5943 C   0  0  0  0  0  0  0  0  0  0  0  0
   16.1601   51.7169   13.3541 C   0  0  0  0  0  0  0  0  0  0  0  0
   16.2591   51.7706   14.7289 C   0  0  0  0  0  0  0  0  0  0  0  0
   16.2967   50.6059   15.4855 O   0  0  0  0  0  0  0  0  0  0  0  0
   15.3063   50.2358   16.3940 C   0  0  0  0  0  0  0  0  0  0  0  0
   15.9838   49.5820   17.5812 C   0  0  0  0  0  0  0  0  0  0  0  0
   17.1244   48.9456   17.1095 O   0  0  0  0  0  0  0  0  0  0  0  0
   15.0399   48.5864   18.1852 C   0  0  0  0  0  0  0  0  0  0  0  0
   15.0405   48.7904   19.6237 N   0  0  0  0  0  0  0  0  0  0  0  0
   14.0255   47.9591   20.2251 C   0  0  0  0  0  0  0  0  0  0  0  0
   14.3671   46.5144   19.8529 C   0  0  0  0  0  0  0  0  0  0  0  0
   12.6886   48.3598   19.6677 C   0  0  0  0  0  0  0  0  0  0  0  0
   14.0964   48.1565   21.7242 C   0  0  0  0  0  0  0  0  0  0  0  0
   16.3176   53.0238   15.2978 C   0  0  0  0  0  0  0  0  0  0  0  0
   16.2794   54.1789   14.5340 C   0  0  0  0  0  0  0  0  0  0  0  0
  1  2  1  0
  2  3  2  0
  3  4  1  0
  4  5  2  0
  5  6  1  0
  6  7  1  0
  7  8  1  0
  8  9  1  0
  9 10  1  0
 10 11  1  0
 11 12  1  0
 12 13  1  0
 12 14  1  0
 14 15  1  0
  5 16  1  0
 16 17  2  0
 17 18  1  0
 18 19  2  0
 19 20  1  0
 20 21  2  0
 21 22  1  0
 22 23  1  0
 23 24  1  0
 24 25  1  0
 24 26  1  0
 26 27  1  0
 27 28  1  0
 28 29  1  0
 28 30  1  0
 28 31  1  0
 21 32  1  0
 32 33  2  0
 17  2  1  0
 33 18  1  0
 13  7  1  0
 14  9  1  0
M  END
$$$$
