
     RDKit          3D

 30 34  0  0  0  0  0  0  0  0999 V2000
   13.0431   63.0363   12.0665 C   0  0  0  0  0  0  0  0  0  0  0  0
   11.7207   63.6491   11.7783 C   0  0  0  0  0  0  0  0  0  0  0  0
   11.3495   64.9298   11.9468 N   0  0  0  0  0  0  0  0  0  0  0  0
   10.0992   65.1100   11.5826 N   0  0  0  0  0  0  0  0  0  0  0  0
    9.3511   66.3505   11.6250 C   0  0  0  0  0  0  0  0  0  0  0  0
   10.2245   67.4866   11.1445 C   0  0  0  0  0  0  0  0  0  0  0  0
   10.5480   68.4366   12.2575 C   0  0  0  0  0  0  0  0  0  0  0  0
   11.0790   67.7904   13.3703 O   0  0  0  0  0  0  0  0  0  0  0  0
   10.2270   66.8554   13.9102 C   0  0  0  0  0  0  0  0  0  0  0  0
    8.9887   66.6362   13.0659 C   0  0  0  0  0  0  0  0  0  0  0  0
    9.6257   63.9255   11.1624 C   0  0  0  0  0  0  0  0  0  0  0  0
   10.6216   62.9612   11.2679 C   0  0  0  0  0  0  0  0  0  0  0  0
   10.5551   61.5729   10.9446 N   0  0  0  0  0  0  0  0  0  0  0  0
   11.4794   60.6290   11.4692 C   0  0  0  0  0  0  0  0  0  0  0  0
   11.4298   59.3582   11.0395 N   0  0  0  0  0  0  0  0  0  0  0  0
   12.2192   58.3652   11.4439 C   0  0  0  0  0  0  0  0  0  0  0  0
   13.1818   58.7001   12.4069 C   0  0  0  0  0  0  0  0  0  0  0  0
   14.0487   57.7545   12.9000 C   0  0  0  0  0  0  0  0  0  0  0  0
   14.9670   58.1708   13.8552 C   0  0  0  0  0  0  0  0  0  0  0  0
   15.0311   59.4261   14.2951 N   0  0  0  0  0  0  0  0  0  0  0  0
   14.1924   60.3551   13.8218 C   0  0  0  0  0  0  0  0  0  0  0  0
   14.2043   61.7006   14.2519 N   0  0  0  0  0  0  0  0  0  0  0  0
   14.7307   62.0734   15.5207 C   0  0  0  0  0  0  0  0  0  0  0  0
   15.5755   63.2923   15.5656 C   0  0  0  0  0  0  0  0  0  0  0  0
   16.8542   63.2578   14.7692 C   0  0  0  0  0  0  0  0  0  0  0  0
   14.7377   64.4895   15.0564 C   0  0  0  0  0  0  0  0  0  0  0  0
   15.4548   65.2957   15.9443 O   0  0  0  0  0  0  0  0  0  0  0  0
   15.5599   64.1503   16.7794 C   0  0  0  0  0  0  0  0  0  0  0  0
   13.2458   59.9902   12.8563 C   0  0  0  0  0  0  0  0  0  0  0  0
   12.3994   60.9536   12.3910 N   0  0  0  0  0  0  0  0  0  0  0  0
  1  2  1  0
  2  3  2  0
  3  4  1  0
  4  5  1  0
  5  6  1  0
  6  7  1  0
  7  8  1  0
  8  9  1  0
  9 10  1  0
  4 11  1  0
 11 12  2  0
 12 13  1  0
 13 14  1  0
 14 15  2  0
 15 16  1  0
 16 17  2  0
 17 18  1  0
 18 19  2  0
 19 20  1  0
 20 21  2  0
 21 22  1  0
 22 23  1  0
 23 24  1  0
 24 25  1  0
 24 26  1  0
 26 27  1  0
 27 28  1  0
 21 29  1  0
 29 30  2  0
 12  2  1  0
 30 14  1  0
 10  5  1  0
 29 17  1  0
 28 24  1  0
M  END
$$$$
