
     RDKit          3D

 32 34  0  0  0  0  0  0  0  0999 V2000
   17.9406   48.3132   17.7846 C   0  0  0  0  0  0  0  0  0  0  0  0
   16.6830   48.0285   17.7421 C   0  0  0  0  0  0  0  0  0  0  0  0
   15.7607   49.0244   17.2238 C   0  0  0  0  0  0  0  0  0  0  0  0
   16.0267   49.6081   16.0867 C   0  0  0  0  0  0  0  0  0  0  0  0
   15.7230   51.0034   15.8836 C   0  0  0  0  0  0  0  0  0  0  0  0
   16.4651   51.7023   15.0096 C   0  0  0  0  0  0  0  0  0  0  0  0
   17.0258   50.9882   13.8445 C   0  0  0  0  0  0  0  0  0  0  0  0
   17.9368   51.9158   13.1273 C   0  0  0  0  0  0  0  0  0  0  0  0
   17.3394   53.2615   12.7861 C   0  0  0  0  0  0  0  0  0  0  0  0
   16.3565   53.7789   13.7834 C   0  0  2  0  0  0  0  0  0  0  0  0
   14.9501   53.2744   13.5308 C   0  0  0  0  0  0  0  0  0  0  0  0
   16.4436   55.1919   14.1502 C   0  0  1  0  0  0  0  0  0  0  0  0
   16.0863   56.2659   13.2062 C   0  0  2  0  0  0  0  0  0  0  0  0
   16.9339   56.3114   11.9575 C   0  0  0  0  0  0  0  0  0  0  0  0
   16.0264   57.6170   13.8275 C   0  0  0  0  0  0  0  0  0  0  0  0
   14.8779   58.4821   13.3532 C   0  0  0  0  0  0  0  0  0  0  0  0
   14.9706   59.8882   13.8000 C   0  0  0  0  0  0  0  0  0  0  0  0
   13.9460   60.8200   13.0914 C   0  0  0  0  0  0  0  0  0  0  0  0
   12.6996   60.2648   13.3435 O   0  0  0  0  0  0  0  0  0  0  0  0
   14.0790   62.2062   13.6012 C   0  0  0  0  0  0  0  0  0  0  0  0
   13.9327   62.3277   15.0826 C   0  0  0  0  0  0  0  0  0  0  0  0
   14.2385   60.6190   11.6397 C   0  0  0  0  0  0  0  0  0  0  0  0
   13.1824   60.9483   10.6627 C   0  0  0  0  0  0  0  0  0  0  0  0
   15.6664   55.2632   15.4578 C   0  0  0  0  0  0  0  0  0  0  0  0
   15.7815   53.8667   16.0327 C   0  0  0  0  0  0  0  0  0  0  0  0
   16.7576   53.1330   15.1321 C   0  0  1  0  0  0  0  0  0  0  0  0
   14.5179   49.3114   17.9785 C   0  0  0  0  0  0  0  0  0  0  0  0
   14.4041   48.3021   19.0891 C   0  0  1  0  0  0  0  0  0  0  0  0
   13.0677   48.3245   19.5243 O   0  0  0  0  0  0  0  0  0  0  0  0
   14.6849   46.8981   18.6297 C   0  0  0  0  0  0  0  0  0  0  0  0
   16.1548   46.7129   18.2685 C   0  0  2  0  0  0  0  0  0  0  0  0
   16.8287   46.3516   19.4133 O   0  0  0  0  0  0  0  0  0  0  0  0
  1  2  2  0
  2  3  1  0
  3  4  2  0
  4  5  1  0
  5  6  2  0
  6  7  1  0
  7  8  1  0
  8  9  1  0
  9 10  1  0
 10 11  1  6
 10 12  1  0
 12 13  1  0
 13 14  1  6
 13 15  1  0
 15 16  1  0
 16 17  1  0
 17 18  1  0
 18 19  1  0
 18 20  1  0
 20 21  1  0
 18 22  1  0
 22 23  1  0
 12 24  1  1
 24 25  1  0
 26 25  1  1
  3 27  1  0
 27 28  1  0
 28 29  1  6
 28 30  1  0
 30 31  1  0
 31 32  1  1
 31  2  1  0
 26  6  1  0
 26 10  1  0
M  END
$$$$
