
     RDKit          3D

 34 38  0  0  0  0  0  0  0  0999 V2000
   11.8011  100.2684   53.4936 C   0  0  0  0  0  0  0  0  0  0  0  0
   13.1939  100.7609   53.4140 C   0  0  0  0  0  0  0  0  0  0  0  0
   13.7019  101.2558   52.2552 N   0  0  0  0  0  0  0  0  0  0  0  0
   14.9565  101.7073   52.1526 C   0  0  0  0  0  0  0  0  0  0  0  0
   15.6727  102.2300   51.1455 N   0  0  0  0  0  0  0  0  0  0  0  0
   16.8910  102.5086   51.6189 C   0  0  0  0  0  0  0  0  0  0  0  0
   16.9478  102.1640   52.9208 N   0  0  0  0  0  0  0  0  0  0  0  0
   15.7666  101.6815   53.2223 N   0  0  0  0  0  0  0  0  0  0  0  0
   15.2993  101.1948   54.4011 C   0  0  0  0  0  0  0  0  0  0  0  0
   16.1711  101.1559   55.5925 C   0  0  0  0  0  0  0  0  0  0  0  0
   14.0129  100.7297   54.5139 C   0  0  0  0  0  0  0  0  0  0  0  0
   13.5048  100.2013   55.7981 C   0  0  0  0  0  0  0  0  0  0  0  0
   13.3093   98.7094   55.6237 C   0  0  0  0  0  0  0  0  0  0  0  0
   13.2358   98.0397   56.9720 C   0  0  0  0  0  0  0  0  0  0  0  0
   14.1584   97.2754   57.3527 O   0  0  0  0  0  0  0  0  0  0  0  0
   12.1295   98.2761   57.7992 N   0  0  0  0  0  0  0  0  0  0  0  0
   11.9012   97.5548   59.0513 C   0  0  0  0  0  0  0  0  0  0  0  0
   11.0987   97.0954   59.7332 N   0  0  0  0  0  0  0  0  0  0  0  0
   11.2145   96.4611   60.8871 C   0  0  0  0  0  0  0  0  0  0  0  0
   12.5158   96.3341   61.3389 C   0  0  0  0  0  0  0  0  0  0  0  0
   13.4441   97.1355   60.0688 S   0  0  0  0  0  0  0  0  0  0  0  0
   12.5244   95.5930   62.6443 C   0  0  0  0  0  0  0  0  0  0  0  0
   11.2414   94.9567   62.5704 N   0  0  0  0  0  0  0  0  0  0  0  0
   11.1816   93.5907   62.5911 C   0  0  0  0  0  0  0  0  0  0  0  0
   12.1908   92.8614   63.3909 C   0  0  0  0  0  0  0  0  0  0  0  0
   13.4138   92.4532   62.9692 C   0  0  0  0  0  0  0  0  0  0  0  0
   14.2764   91.7823   63.8084 C   0  0  0  0  0  0  0  0  0  0  0  0
   13.9228   91.5052   65.1026 C   0  0  0  0  0  0  0  0  0  0  0  0
   12.6867   91.9092   65.5537 C   0  0  0  0  0  0  0  0  0  0  0  0
   11.8354   92.5789   64.7029 C   0  0  0  0  0  0  0  0  0  0  0  0
   10.3470   95.8025   61.9403 C   0  0  0  0  0  0  0  0  0  0  0  0
    9.0895   95.2717   61.3672 C   0  0  0  0  0  0  0  0  0  0  0  0
    8.7744   95.8229   60.0075 C   0  0  0  0  0  0  0  0  0  0  0  0
    7.9061   95.3418   62.3055 C   0  0  0  0  0  0  0  0  0  0  0  0
  1  2  1  0
  2  3  2  0
  3  4  1  0
  4  5  2  0
  5  6  1  0
  6  7  2  0
  7  8  1  0
  8  9  1  0
  9 10  1  0
  9 11  2  0
 11 12  1  0
 12 13  1  0
 13 14  1  0
 14 15  2  0
 14 16  1  0
 16 17  1  0
 17 18  2  0
 18 19  1  0
 19 20  2  0
 20 21  1  0
 20 22  1  0
 22 23  1  0
 23 24  1  0
 24 25  1  0
 25 26  2  0
 26 27  1  0
 27 28  2  0
 28 29  1  0
 29 30  2  0
 23 31  1  0
 31 32  1  0
 32 33  1  0
 32 34  1  0
 11  2  1  0
 21 17  1  0
 30 25  1  0
  8  4  1  0
 31 19  1  0
M  END
$$$$
