
     RDKit          3D

 24 27  0  0  0  0  0  0  0  0999 V2000
   16.4030   53.8336   16.1613 O   0  0  0  0  0  0  0  0  0  0  0  0
   16.7114   52.9262   15.3558 C   0  0  0  0  0  0  0  0  0  0  0  0
   16.9375   51.5740   15.8202 C   0  0  1  0  0  0  0  0  0  0  0  0
   18.3092   51.2344   16.2882 C   0  0  0  0  0  0  0  0  0  0  0  0
   18.4398   49.7070   16.1879 C   0  0  0  0  0  0  0  0  0  0  0  0
   17.0822   49.0771   16.2587 C   0  0  0  0  0  0  0  0  0  0  0  0
   16.9829   47.9371   15.7015 O   0  0  0  0  0  0  0  0  0  0  0  0
   15.9761   49.7012   16.9009 N   0  0  0  0  0  0  0  0  0  0  0  0
   14.9635   48.8756   17.4626 C   0  0  0  0  0  0  0  0  0  0  0  0
   15.1085   48.8406   18.9773 C   0  0  0  0  0  0  0  0  0  0  0  0
   14.1216   47.8486   19.5329 C   0  0  0  0  0  0  0  0  0  0  0  0
   12.7087   48.3433   19.2137 C   0  0  0  0  0  0  0  0  0  0  0  0
   12.6047   48.2794   17.6848 C   0  0  0  0  0  0  0  0  0  0  0  0
   13.5632   49.3372   17.1642 C   0  0  0  0  0  0  0  0  0  0  0  0
   15.9733   51.1511   16.9295 C   0  0  0  0  0  0  0  0  0  0  0  0
   16.8325   53.2494   13.9895 N   0  0  0  0  0  0  0  0  0  0  0  0
   17.1678   52.3169   12.9040 C   0  0  0  0  0  0  0  0  0  0  0  0
   16.4283   52.9215   11.7263 C   0  0  0  0  0  0  0  0  0  0  0  0
   16.4175   54.3622   12.0086 C   0  0  0  0  0  0  0  0  0  0  0  0
   16.2142   55.4580   11.1683 C   0  0  0  0  0  0  0  0  0  0  0  0
   16.2615   56.7152   11.7218 C   0  0  0  0  0  0  0  0  0  0  0  0
   16.5020   56.8819   13.0622 C   0  0  0  0  0  0  0  0  0  0  0  0
   16.7030   55.7844   13.8898 C   0  0  0  0  0  0  0  0  0  0  0  0
   16.6588   54.5233   13.3515 C   0  0  0  0  0  0  0  0  0  0  0  0
  1  2  2  0
  3  2  1  1
  3  4  1  0
  4  5  1  0
  5  6  1  0
  6  7  2  0
  6  8  1  0
  8  9  1  0
  9 10  1  0
 10 11  1  0
 11 12  1  0
 12 13  1  0
 13 14  1  0
  8 15  1  0
  2 16  1  0
 16 17  1  0
 17 18  1  0
 18 19  1  0
 19 20  2  0
 20 21  1  0
 21 22  2  0
 22 23  1  0
 23 24  2  0
 15  3  1  0
 24 16  1  0
 14  9  1  0
 24 19  1  0
M  END
$$$$
