
     RDKit          3D

 29 31  0  0  0  0  0  0  0  0999 V2000
   11.0247   61.7409   13.2025 N   0  0  0  0  0  0  0  0  0  0  0  0
   11.4619   60.7303   12.3199 C   0  0  0  0  0  0  0  0  0  0  0  0
   10.8096   60.5764   11.2574 O   0  0  0  0  0  0  0  0  0  0  0  0
   12.6253   59.9231   12.6657 C   0  0  0  0  0  0  0  0  0  0  0  0
   13.2755   59.1469   11.7343 C   0  0  0  0  0  0  0  0  0  0  0  0
   14.3911   58.3786   12.0923 C   0  0  0  0  0  0  0  0  0  0  0  0
   14.8879   58.3596   13.3724 C   0  0  0  0  0  0  0  0  0  0  0  0
   16.0709   57.5701   13.8128 C   0  0  0  0  0  0  0  0  0  0  0  0
   16.0925   56.2798   13.1821 N   0  0  0  0  0  0  0  0  0  0  0  0
   16.0421   55.0330   13.9012 C   0  0  0  0  0  0  0  0  0  0  0  0
   15.7428   55.1004   15.0969 O   0  0  0  0  0  0  0  0  0  0  0  0
   16.3403   53.8004   13.1924 C   0  0  0  0  0  0  0  0  0  0  0  0
   16.6018   53.7537   11.8541 N   0  0  0  0  0  0  0  0  0  0  0  0
   16.8451   52.5056   11.4536 C   0  0  0  0  0  0  0  0  0  0  0  0
   16.7367   51.7501   12.5516 N   0  0  0  0  0  0  0  0  0  0  0  0
   16.4262   52.5206   13.6403 C   0  0  0  0  0  0  0  0  0  0  0  0
   16.2378   52.0404   14.9982 C   0  0  0  0  0  0  0  0  0  0  0  0
   15.8447   52.7715   15.9232 O   0  0  0  0  0  0  0  0  0  0  0  0
   16.4990   50.6802   15.3435 N   0  0  0  0  0  0  0  0  0  0  0  0
   16.6402   50.1763   16.6800 C   0  0  0  0  0  0  0  0  0  0  0  0
   15.3383   49.6965   17.1716 C   0  0  0  0  0  0  0  0  0  0  0  0
   14.2450   49.8993   16.3474 C   0  0  0  0  0  0  0  0  0  0  0  0
   12.9947   49.4829   16.7700 C   0  0  0  0  0  0  0  0  0  0  0  0
   12.8165   48.8794   17.9757 C   0  0  0  0  0  0  0  0  0  0  0  0
   13.9071   48.6828   18.7863 C   0  0  0  0  0  0  0  0  0  0  0  0
   13.8130   48.0888   20.0035 F   0  0  0  0  0  0  0  0  0  0  0  0
   15.1831   49.0936   18.3844 C   0  0  0  0  0  0  0  0  0  0  0  0
   14.2158   59.1552   14.3119 C   0  0  0  0  0  0  0  0  0  0  0  0
   13.1218   59.9058   13.9519 C   0  0  0  0  0  0  0  0  0  0  0  0
  1  2  1  0
  2  3  2  0
  2  4  1  0
  4  5  2  0
  5  6  1  0
  6  7  2  0
  7  8  1  0
  8  9  1  0
  9 10  1  0
 10 11  2  0
 10 12  1  0
 12 13  1  0
 13 14  2  0
 14 15  1  0
 15 16  1  0
 16 17  1  0
 17 18  2  0
 17 19  1  0
 19 20  1  0
 20 21  1  0
 21 22  2  0
 22 23  1  0
 23 24  2  0
 24 25  1  0
 25 26  1  0
 25 27  2  0
  7 28  1  0
 28 29  2  0
 29  4  1  0
 16 12  2  0
 27 21  1  0
M  END
$$$$
