
     RDKit          3D

 22 23  0  0  0  0  0  0  0  0999 V2000
   28.9392   82.2038   50.7246 C   0  0  0  0  0  0  0  0  0  0  0  0
   30.4025   82.2293   50.3528 C   0  0  0  0  0  0  0  0  0  0  0  0
   31.2090   82.1185   51.4825 O   0  0  0  0  0  0  0  0  0  0  0  0
   32.5658   82.3618   51.5474 C   0  0  0  0  0  0  0  0  0  0  0  0
   33.2874   82.2978   52.7157 C   0  0  0  0  0  0  0  0  0  0  0  0
   34.6443   82.5623   52.6543 C   0  0  0  0  0  0  0  0  0  0  0  0
   35.2419   82.8785   51.4563 C   0  0  0  0  0  0  0  0  0  0  0  0
   36.6824   83.1684   51.3534 C   0  0  0  0  0  0  0  0  0  0  0  0
   37.4628   81.9897   51.0962 N   0  0  0  0  0  0  0  0  0  0  0  0
   37.5735   81.4864   49.7380 C   0  0  0  0  0  0  0  0  0  0  0  0
   38.1152   81.3307   52.1650 C   0  0  0  0  0  0  0  0  0  0  0  0
   38.1878   81.9157   53.2753 O   0  0  0  0  0  0  0  0  0  0  0  0
   38.7115   79.9721   52.0032 C   0  0  0  0  0  0  0  0  0  0  0  0
   39.3041   79.5766   53.3222 N   0  0  0  0  0  0  0  0  0  0  0  0
   40.4925   79.9402   53.6772 C   0  0  0  0  0  0  0  0  0  0  0  0
   41.4158   80.7941   52.7887 C   0  0  0  0  0  0  0  0  0  0  0  0
   40.9895   79.5617   54.8916 C   0  0  0  0  0  0  0  0  0  0  0  0
   39.6530   78.6096   55.5825 S   0  0  0  0  0  0  0  0  0  0  0  0
   38.5576   78.8267   54.1457 C   0  0  0  0  0  0  0  0  0  0  0  0
   37.3828   78.3320   54.0654 O   0  0  0  0  0  0  0  0  0  0  0  0
   34.5027   82.9391   50.2895 C   0  0  0  0  0  0  0  0  0  0  0  0
   33.1707   82.6817   50.3356 C   0  0  0  0  0  0  0  0  0  0  0  0
  1  2  1  0
  2  3  1  0
  3  4  1  0
  4  5  2  0
  5  6  1  0
  6  7  2  0
  7  8  1  0
  8  9  1  0
  9 10  1  0
  9 11  1  0
 11 12  2  0
 11 13  1  0
 13 14  1  0
 14 15  1  0
 15 16  1  0
 15 17  2  0
 17 18  1  0
 18 19  1  0
 19 20  2  0
  7 21  1  0
 21 22  2  0
 22  4  1  0
 19 14  1  0
M  END
$$$$
