
     RDKit          3D

 25 26  0  0  0  0  0  0  0  0999 V2000
   17.1675   59.5353   13.5727 C   0  0  0  0  0  0  0  0  0  0  0  0
   17.5363   58.2496   13.1959 O   0  0  0  0  0  0  0  0  0  0  0  0
   16.6758   57.2535   12.7686 C   0  0  0  0  0  0  0  0  0  0  0  0
   15.3110   57.3864   12.6514 C   0  0  0  0  0  0  0  0  0  0  0  0
   14.4933   56.3504   12.2165 C   0  0  0  0  0  0  0  0  0  0  0  0
   15.0583   55.1327   11.8849 C   0  0  0  0  0  0  0  0  0  0  0  0
   16.4210   54.9758   11.9944 C   0  0  0  0  0  0  0  0  0  0  0  0
   17.0243   53.6680   11.6408 C   0  0  0  0  0  0  0  0  0  0  0  0
   17.0387   52.8652   12.8968 C   0  0  0  0  0  0  0  0  0  0  0  0
   18.0163   52.7892   13.8559 C   0  0  0  0  0  0  0  0  0  0  0  0
   17.7500   51.9929   14.8651 N   0  0  0  0  0  0  0  0  0  0  0  0
   16.8223   51.3511   15.0652 C   0  0  0  0  0  0  0  0  0  0  0  0
   16.2024   50.4065   16.0072 N   0  0  0  0  0  0  0  0  0  0  0  0
   15.3652   50.8433   17.0521 C   0  0  0  0  0  0  0  0  0  0  0  0
   15.1699   52.1034   17.1351 O   0  0  0  0  0  0  0  0  0  0  0  0
   14.7225   49.9495   18.0235 C   0  0  0  0  0  0  0  0  0  0  0  0
   15.0384   48.5664   17.8359 N   0  0  0  0  0  0  0  0  0  0  0  0
   16.4393   48.3879   18.1813 C   0  0  0  0  0  0  0  0  0  0  0  0
   16.5861   47.8009   19.5689 C   0  0  0  0  0  0  0  0  0  0  0  0
   15.6304   48.3239   20.4362 O   0  0  0  0  0  0  0  0  0  0  0  0
   14.3299   48.0482   20.0661 C   0  0  0  0  0  0  0  0  0  0  0  0
   14.1727   47.6987   18.6059 C   0  0  0  0  0  0  0  0  0  0  0  0
   15.8022   51.7807   13.5186 S   0  0  0  0  0  0  0  0  0  0  0  0
   17.2073   56.0158   12.4269 C   0  0  0  0  0  0  0  0  0  0  0  0
   16.1412   52.9668   15.1136 Cl  0  0  0  0  0  0  0  0  0  0  0  0
  1  2  1  0
  2  3  1  0
  3  4  2  0
  4  5  1  0
  5  6  2  0
  6  7  1  0
  7  8  1  0
  8  9  1  0
  9 10  2  0
 10 11  1  0
 11 12  2  0
 12 13  1  0
 13 14  1  0
 14 15  2  0
 14 16  1  0
 16 17  1  0
 17 18  1  0
 18 19  1  0
 19 20  1  0
 20 21  1  0
 21 22  1  0
 12 23  1  0
  7 24  2  0
 24  3  1  0
 23  9  1  0
 22 17  1  0
M  END
$$$$
