
     RDKit          3D

 23 24  0  0  0  0  0  0  0  0999 V2000
   14.3615   46.7129   20.8670 C   0  0  0  0  0  0  0  0  0  0  0  0
   14.4224   47.5617   19.6154 C   0  0  0  0  0  0  0  0  0  0  0  0
   15.6954   47.7469   19.1419 O   0  0  0  0  0  0  0  0  0  0  0  0
   15.7899   48.5514   18.0200 C   0  0  0  0  0  0  0  0  0  0  0  0
   17.1339   49.2370   17.9242 C   0  0  0  0  0  0  0  0  0  0  0  0
   17.4956   49.6312   16.5888 N   0  0  0  0  0  0  0  0  0  0  0  0
   17.4317   50.9651   16.1137 C   0  0  0  0  0  0  0  0  0  0  0  0
   18.0721   51.8363   16.7978 O   0  0  0  0  0  0  0  0  0  0  0  0
   16.7316   51.4011   14.9680 N   0  0  0  0  0  0  0  0  0  0  0  0
   15.4813   50.8501   14.5658 C   0  0  0  0  0  0  0  0  0  0  0  0
   14.4137   51.9059   14.3687 C   0  0  0  0  0  0  0  0  0  0  0  0
   14.7327   52.8648   13.2495 C   0  0  0  0  0  0  0  0  0  0  0  0
   15.6216   53.9162   13.6609 N   0  0  0  0  0  0  0  0  0  0  0  0
   15.4487   55.2346   13.1754 C   0  0  0  0  0  0  0  0  0  0  0  0
   14.3843   56.0008   13.5571 N   0  0  0  0  0  0  0  0  0  0  0  0
   14.2032   57.2495   13.1109 C   0  0  0  0  0  0  0  0  0  0  0  0
   15.0823   57.8393   12.2370 C   0  0  0  0  0  0  0  0  0  0  0  0
   14.8371   59.4831   11.6544 Cl  0  0  0  0  0  0  0  0  0  0  0  0
   16.1724   57.1048   11.8231 C   0  0  0  0  0  0  0  0  0  0  0  0
   16.3300   55.8293   12.2976 C   0  0  0  0  0  0  0  0  0  0  0  0
   17.7237   54.9274   11.7489 Cl  0  0  0  0  0  0  0  0  0  0  0  0
   16.7389   53.7628   14.5720 C   0  0  0  0  0  0  0  0  0  0  0  0
   17.4182   52.4762   14.2290 C   0  0  0  0  0  0  0  0  0  0  0  0
  1  2  1  0
  2  3  1  0
  3  4  1  0
  4  5  1  0
  5  6  1  0
  6  7  1  0
  7  8  2  0
  7  9  1  0
  9 10  1  0
 10 11  1  0
 11 12  1  0
 12 13  1  0
 13 14  1  0
 14 15  2  0
 15 16  1  0
 16 17  2  0
 17 18  1  0
 17 19  1  0
 19 20  2  0
 20 21  1  0
 13 22  1  0
 22 23  1  0
 23  9  1  0
 20 14  1  0
M  END
$$$$
