
     RDKit          3D

 32 36  0  0  0  0  0  0  0  0999 V2000
   14.1624   47.4488   20.7103 C   0  0  0  0  0  0  0  0  0  0  0  0
   13.3637   47.6350   19.4255 C   0  0  0  0  0  0  0  0  0  0  0  0
   14.0317   46.9463   18.2653 C   0  0  0  0  0  0  0  0  0  0  0  0
   15.1394   47.7988   17.6737 C   0  0  0  0  0  0  0  0  0  0  0  0
   14.7472   49.1492   17.4287 N   0  0  0  0  0  0  0  0  0  0  0  0
   13.8322   49.2939   16.3347 C   0  0  0  0  0  0  0  0  0  0  0  0
   14.0167   50.5677   15.6224 C   0  0  0  0  0  0  0  0  0  0  0  0
   15.3011   51.1055   15.6387 C   0  0  0  0  0  0  0  0  0  0  0  0
   15.5418   52.2810   15.0026 C   0  0  0  0  0  0  0  0  0  0  0  0
   14.5425   52.9831   14.3236 C   0  0  0  0  0  0  0  0  0  0  0  0
   14.9351   54.2261   13.6871 C   0  0  0  0  0  0  0  0  0  0  0  0
   14.0526   55.0932   13.0781 C   0  0  0  0  0  0  0  0  0  0  0  0
   14.4513   56.2427   12.4945 N   0  0  0  0  0  0  0  0  0  0  0  0
   15.7462   56.5838   12.4894 C   0  0  0  0  0  0  0  0  0  0  0  0
   16.6606   55.7401   13.0899 C   0  0  0  0  0  0  0  0  0  0  0  0
   17.9958   55.7660   13.2661 N   0  0  0  0  0  0  0  0  0  0  0  0
   18.4178   54.6804   13.9312 C   0  0  0  0  0  0  0  0  0  0  0  0
   19.6917   54.3038   14.3229 O   0  0  0  0  0  0  0  0  0  0  0  0
   20.4190   53.2121   13.8805 C   0  0  0  0  0  0  0  0  0  0  0  0
   21.6771   52.9445   14.6017 C   0  0  0  0  0  0  0  0  0  0  0  0
   22.0227   53.7315   15.6711 C   0  0  0  0  0  0  0  0  0  0  0  0
   23.2221   53.4387   16.3309 C   0  0  0  0  0  0  0  0  0  0  0  0
   24.0293   52.3938   15.9190 C   0  0  0  0  0  0  0  0  0  0  0  0
   25.5226   52.0584   16.7698 Cl  0  0  0  0  0  0  0  0  0  0  0  0
   23.6615   51.6012   14.8258 C   0  0  0  0  0  0  0  0  0  0  0  0
   22.4808   51.8921   14.1792 C   0  0  0  0  0  0  0  0  0  0  0  0
   17.2856   53.9558   14.1732 N   0  0  0  0  0  0  0  0  0  0  0  0
   16.2492   54.5974   13.6678 N   0  0  0  0  0  0  0  0  0  0  0  0
   13.2861   52.4654   14.3027 C   0  0  0  0  0  0  0  0  0  0  0  0
   13.0429   51.2585   14.9569 C   0  0  0  0  0  0  0  0  0  0  0  0
   14.3263   49.8122   18.6250 C   0  0  0  0  0  0  0  0  0  0  0  0
   13.1025   49.0946   19.1771 C   0  0  0  0  0  0  0  0  0  0  0  0
  1  2  1  0
  2  3  1  0
  3  4  1  0
  4  5  1  0
  5  6  1  0
  6  7  1  0
  7  8  2  0
  8  9  1  0
  9 10  2  0
 10 11  1  0
 11 12  2  0
 12 13  1  0
 13 14  2  0
 14 15  1  0
 15 16  2  0
 16 17  1  0
 17 18  1  0
 18 19  1  0
 19 20  1  0
 20 21  2  0
 21 22  1  0
 22 23  2  0
 23 24  1  0
 23 25  1  0
 25 26  2  0
 17 27  2  0
 27 28  1  0
 10 29  1  0
 29 30  2  0
  5 31  1  0
 31 32  1  0
 32  2  1  0
 30  7  1  0
 28 11  1  0
 28 15  1  0
 26 20  1  0
M  END
$$$$
