
     RDKit          3D

 25 27  0  0  0  0  0  0  0  0999 V2000
   15.1207   57.2407   14.9889 C   0  0  0  0  0  0  0  0  0  0  0  0
   14.2995   57.0608   13.7597 C   0  0  0  0  0  0  0  0  0  0  0  0
   14.0788   55.6782   13.2722 C   0  0  0  0  0  0  0  0  0  0  0  0
   15.2761   54.9189   13.0502 N   0  0  0  0  0  0  0  0  0  0  0  0
   16.0155   55.0917   11.9575 C   0  0  0  0  0  0  0  0  0  0  0  0
   17.1382   54.3142   11.8157 C   0  0  0  0  0  0  0  0  0  0  0  0
   17.5319   53.3765   12.7364 C   0  0  0  0  0  0  0  0  0  0  0  0
   16.7456   53.2027   13.8851 C   0  0  0  0  0  0  0  0  0  0  0  0
   17.1671   52.1975   14.8751 C   0  0  0  0  0  0  0  0  0  0  0  0
   18.3732   51.8016   14.7178 O   0  0  0  0  0  0  0  0  0  0  0  0
   16.4147   51.6653   15.9106 N   0  0  0  0  0  0  0  0  0  0  0  0
   16.7155   50.4716   16.6342 C   0  0  0  0  0  0  0  0  0  0  0  0
   15.6331   49.8739   17.4392 C   0  0  0  0  0  0  0  0  0  0  0  0
   15.9988   49.3198   18.6602 C   0  0  0  0  0  0  0  0  0  0  0  0
   15.0587   48.6761   19.4036 C   0  0  0  0  0  0  0  0  0  0  0  0
   13.7390   48.5504   18.9862 C   0  0  0  0  0  0  0  0  0  0  0  0
   12.8375   47.8871   19.7833 F   0  0  0  0  0  0  0  0  0  0  0  0
   13.3914   49.0976   17.7905 C   0  0  0  0  0  0  0  0  0  0  0  0
   14.3272   49.7548   17.0242 C   0  0  0  0  0  0  0  0  0  0  0  0
   13.7590   50.5452   15.5562 Cl  0  0  0  0  0  0  0  0  0  0  0  0
   15.6491   54.0038   13.9635 C   0  0  0  0  0  0  0  0  0  0  0  0
   14.9026   53.8801   14.9973 O   0  0  0  0  0  0  0  0  0  0  0  0
   14.8379   57.9466   12.6282 C   0  0  0  0  0  0  0  0  0  0  0  0
   13.5240   58.2343   12.2239 O   0  0  0  0  0  0  0  0  0  0  0  0
   13.1666   58.0392   13.5797 C   0  0  0  0  0  0  0  0  0  0  0  0
  1  2  1  0
  2  3  1  0
  3  4  1  0
  4  5  1  0
  5  6  2  0
  6  7  1  0
  7  8  2  0
  8  9  1  0
  9 10  2  0
  9 11  1  0
 11 12  1  0
 12 13  1  0
 13 14  2  0
 14 15  1  0
 15 16  2  0
 16 17  1  0
 16 18  1  0
 18 19  2  0
 19 20  1  0
  8 21  1  0
 21 22  2  0
  2 23  1  0
 23 24  1  0
 24 25  1  0
 25  2  1  0
 21  4  1  0
 19 13  1  0
M  END
$$$$
