
     RDKit          3D

 24 27  0  0  0  0  0  0  0  0999 V2000
   12.0784   92.4017   64.2032 C   0  0  0  0  0  0  0  0  0  0  0  0
   11.0076   93.2011   63.8579 C   0  0  0  0  0  0  0  0  0  0  0  0
   11.1610   94.2702   62.9684 C   0  0  0  0  0  0  0  0  0  0  0  0
   12.3843   94.5243   62.4368 C   0  0  0  0  0  0  0  0  0  0  0  0
   12.6214   95.6356   61.4911 C   0  0  0  0  0  0  0  0  0  0  0  0
   13.7730   95.8079   60.7636 C   0  0  0  0  0  0  0  0  0  0  0  0
   13.5929   96.9397   60.0201 N   0  0  0  0  0  0  0  0  0  0  0  0
   12.3937   97.4800   60.2456 C   0  0  0  0  0  0  0  0  0  0  0  0
   11.7647   98.6745   59.6954 C   0  0  2  0  0  0  0  0  0  0  0  0
   10.3748   98.4308   59.1722 C   0  0  0  0  0  0  0  0  0  0  0  0
    9.7345   99.5706   58.7785 O   0  0  0  0  0  0  0  0  0  0  0  0
   10.4110  100.7479   58.7647 C   0  0  0  0  0  0  0  0  0  0  0  0
   11.8776  100.7592   58.7848 C   0  0  0  0  0  0  0  0  0  0  0  0
   12.4594   99.3993   58.6820 N   0  0  0  0  0  0  0  0  0  0  0  0
   12.2422   98.9695   57.3297 C   0  0  0  0  0  0  0  0  0  0  0  0
   13.2345   99.6440   56.4412 C   0  0  0  0  0  0  0  0  0  0  0  0
   13.3390   99.2529   55.1113 C   0  0  0  0  0  0  0  0  0  0  0  0
   14.2445   99.8881   54.2655 C   0  0  0  0  0  0  0  0  0  0  0  0
   15.0487  100.9045   54.7139 C   0  0  0  0  0  0  0  0  0  0  0  0
   14.9314  101.2672   56.0034 N   0  0  0  0  0  0  0  0  0  0  0  0
   14.0631  100.6676   56.8398 C   0  0  0  0  0  0  0  0  0  0  0  0
   11.8151   96.6364   61.1711 N   0  0  0  0  0  0  0  0  0  0  0  0
   13.4434   93.7150   62.7931 C   0  0  0  0  0  0  0  0  0  0  0  0
   13.3059   92.6568   63.6697 C   0  0  0  0  0  0  0  0  0  0  0  0
  1  2  2  0
  2  3  1  0
  3  4  2  0
  4  5  1  0
  5  6  2  0
  6  7  1  0
  7  8  1  0
  9  8  1  6
  9 10  1  0
 10 11  1  0
 11 12  1  0
 12 13  1  0
 13 14  1  0
 14 15  1  0
 15 16  1  0
 16 17  2  0
 17 18  1  0
 18 19  2  0
 19 20  1  0
 20 21  2  0
  8 22  2  0
  4 23  1  0
 23 24  2  0
 24  1  1  0
 22  5  1  0
 14  9  1  0
 21 16  1  0
M  END
$$$$
