
     RDKit          3D

 24 26  0  0  0  0  0  0  0  0999 V2000
   14.7110   49.0699   16.9112 C   0  0  0  0  0  0  0  0  0  0  0  0
   15.7996   49.8537   16.3969 O   0  0  0  0  0  0  0  0  0  0  0  0
   15.4175   51.0449   15.7492 C   0  0  0  0  0  0  0  0  0  0  0  0
   14.5319   51.7984   16.2524 O   0  0  0  0  0  0  0  0  0  0  0  0
   15.9906   51.4620   14.5207 N   0  0  0  0  0  0  0  0  0  0  0  0
   15.9984   52.8508   14.1722 C   0  0  0  0  0  0  0  0  0  0  0  0
   16.5099   53.2941   12.9698 C   0  0  0  0  0  0  0  0  0  0  0  0
   16.5281   54.6261   12.6114 C   0  0  0  0  0  0  0  0  0  0  0  0
   16.0224   55.5782   13.4679 C   0  0  0  0  0  0  0  0  0  0  0  0
   16.0326   57.0122   13.1033 C   0  0  0  0  0  0  0  0  0  0  0  0
   17.0940   57.5949   12.7847 O   0  0  0  0  0  0  0  0  0  0  0  0
   14.8275   57.7592   13.1094 N   0  0  0  0  0  0  0  0  0  0  0  0
   14.9114   59.1976   13.2247 C   0  0  0  0  0  0  0  0  0  0  0  0
   13.7060   59.8880   12.7569 C   0  0  0  0  0  0  0  0  0  0  0  0
   13.6748   61.2281   12.8490 N   0  0  0  0  0  0  0  0  0  0  0  0
   12.6020   61.9264   12.4383 C   0  0  0  0  0  0  0  0  0  0  0  0
   11.4967   61.2742   11.9070 C   0  0  0  0  0  0  0  0  0  0  0  0
   11.5442   59.9363   11.8221 N   0  0  0  0  0  0  0  0  0  0  0  0
   12.6242   59.2487   12.2370 C   0  0  0  0  0  0  0  0  0  0  0  0
   12.5819   57.7825   12.1028 C   0  0  0  0  0  0  0  0  0  0  0  0
   12.7588   57.4599   10.7696 O   0  0  0  0  0  0  0  0  0  0  0  0
   13.5489   57.0809   13.0017 C   0  0  0  0  0  0  0  0  0  0  0  0
   15.5083   55.1453   14.6738 C   0  0  0  0  0  0  0  0  0  0  0  0
   15.4919   53.8112   15.0281 C   0  0  0  0  0  0  0  0  0  0  0  0
  1  2  1  0
  2  3  1  0
  3  4  2  0
  3  5  1  0
  5  6  1  0
  6  7  2  0
  7  8  1  0
  8  9  2  0
  9 10  1  0
 10 11  2  0
 10 12  1  0
 12 13  1  0
 13 14  1  0
 14 15  2  0
 15 16  1  0
 16 17  2  0
 17 18  1  0
 18 19  2  0
 19 20  1  0
 20 21  1  0
 20 22  1  0
  9 23  1  0
 23 24  2  0
 24  6  1  0
 22 12  1  0
 19 14  1  0
M  END
$$$$
