
     RDKit          3D

 38 43  0  0  0  0  0  0  0  0999 V2000
   15.4257   47.4425   21.5866 C   0  0  0  0  0  0  0  0  0  0  0  0
   14.8366   46.6234   20.4761 C   0  0  0  0  0  0  0  0  0  0  0  0
   14.1629   47.4724   19.5093 N   0  0  0  0  0  0  0  0  0  0  0  0
   12.7493   47.6873   19.4200 C   0  0  0  0  0  0  0  0  0  0  0  0
   12.5599   48.7284   18.3606 C   0  0  0  0  0  0  0  0  0  0  0  0
   13.9338   48.9739   17.7986 C   0  0  0  0  0  0  0  0  0  0  0  0
   14.3504   49.7726   16.7755 C   0  0  0  0  0  0  0  0  0  0  0  0
   15.6825   49.8823   16.3740 C   0  0  0  0  0  0  0  0  0  0  0  0
   16.0657   50.7802   15.2473 C   0  0  0  0  0  0  0  0  0  0  0  0
   14.9928   51.8327   15.0786 C   0  0  0  0  0  0  0  0  0  0  0  0
   15.4540   52.9033   14.0867 C   0  0  0  0  0  0  0  0  0  0  0  0
   16.6156   53.5600   14.6631 N   0  0  0  0  0  0  0  0  0  0  0  0
   17.1174   54.7799   14.2002 C   0  0  0  0  0  0  0  0  0  0  0  0
   17.9745   55.4057   14.8948 O   0  0  0  0  0  0  0  0  0  0  0  0
   16.7237   55.4145   12.9443 C   0  0  0  0  0  0  0  0  0  0  0  0
   15.5883   56.1914   12.8587 C   0  0  0  0  0  0  0  0  0  0  0  0
   15.1839   56.8061   11.6631 C   0  0  0  0  0  0  0  0  0  0  0  0
   13.9598   57.6305   11.6255 C   0  0  0  0  0  0  0  0  0  0  0  0
   13.9231   58.6154   12.7524 C   0  0  0  0  0  0  0  0  0  0  0  0
   13.9725   58.1701   14.0157 N   0  0  0  0  0  0  0  0  0  0  0  0
   13.9124   59.0019   15.0306 N   0  0  0  0  0  0  0  0  0  0  0  0
   13.8000   60.3303   14.8848 C   0  0  0  0  0  0  0  0  0  0  0  0
   13.7395   61.1468   15.8405 O   0  0  0  0  0  0  0  0  0  0  0  0
   13.7457   60.8496   13.6257 C   0  0  0  0  0  0  0  0  0  0  0  0
   13.8097   59.9599   12.5465 C   0  0  0  0  0  0  0  0  0  0  0  0
   13.7710   60.5202   11.2188 N   0  0  0  0  0  0  0  0  0  0  0  0
   13.0902   61.7364   10.9067 C   0  0  0  0  0  0  0  0  0  0  0  0
   12.6328   62.4173   12.1744 C   0  0  0  0  0  0  0  0  0  0  0  0
   13.6319   62.2685   13.2836 C   0  0  0  0  0  0  0  0  0  0  0  0
   15.9824   56.5924   10.5789 C   0  0  0  0  0  0  0  0  0  0  0  0
   17.1395   55.8027   10.6579 C   0  0  0  0  0  0  0  0  0  0  0  0
   17.5146   55.2112   11.8364 C   0  0  0  0  0  0  0  0  0  0  0  0
   18.6505   54.4374   11.9136 F   0  0  0  0  0  0  0  0  0  0  0  0
   17.2310   52.8748   15.7861 C   0  0  0  0  0  0  0  0  0  0  0  0
   17.3861   51.4322   15.4063 C   0  0  0  0  0  0  0  0  0  0  0  0
   16.5845   49.1271   17.0769 C   0  0  0  0  0  0  0  0  0  0  0  0
   16.1665   48.3031   18.1297 C   0  0  0  0  0  0  0  0  0  0  0  0
   14.8439   48.2185   18.4989 C   0  0  0  0  0  0  0  0  0  0  0  0
  1  2  1  0
  2  3  1  0
  3  4  1  0
  4  5  1  0
  5  6  1  0
  6  7  2  0
  7  8  1  0
  8  9  1  0
  9 10  1  0
 10 11  1  0
 11 12  1  0
 12 13  1  0
 13 14  2  0
 13 15  1  0
 15 16  2  0
 16 17  1  0
 17 18  1  0
 18 19  1  0
 19 20  2  0
 20 21  1  0
 21 22  1  0
 22 23  2  0
 22 24  1  0
 24 25  2  0
 25 26  1  0
 26 27  1  0
 27 28  1  0
 28 29  1  0
 17 30  2  0
 30 31  1  0
 31 32  2  0
 32 33  1  0
 12 34  1  0
 34 35  1  0
  8 36  2  0
 36 37  1  0
 37 38  2  0
 38  3  1  0
 38  6  1  0
 35  9  1  0
 32 15  1  0
 25 19  1  0
 29 24  1  0
M  END
$$$$
