
     RDKit          3D

 33 34  0  0  0  0  0  0  0  0999 V2000
   -8.3365   57.3268   32.2138 C   0  0  0  0  0  0  0  0  0  0  0  0
   -7.8619   58.6861   31.7244 C   0  0  0  0  0  0  0  0  0  0  0  0
   -8.9348   59.5930   31.4042 N   0  0  0  0  0  0  0  0  0  0  0  0
   -8.3050   60.9342   31.1798 C   0  0  0  0  0  0  0  0  0  0  0  0
   -6.8726   60.7380   31.0474 C   0  0  0  0  0  0  0  0  0  0  0  0
   -5.9702   61.0345   30.1037 C   0  0  0  0  0  0  0  0  0  0  0  0
   -4.6060   60.5496   30.3931 C   0  0  0  0  0  0  0  0  0  0  0  0
   -3.5045   60.1730   30.6105 C   0  0  0  0  0  0  0  0  0  0  0  0
   -2.1586   59.6879   30.8878 C   0  0  0  0  0  0  0  0  0  0  0  0
   -2.1075   59.0133   32.2455 C   0  0  0  0  0  0  0  0  0  0  0  0
   -1.8928   58.5018   29.8868 C   0  0  0  0  0  0  0  0  0  0  0  0
   -1.0926   60.6672   30.6799 C   0  0  0  0  0  0  0  0  0  0  0  0
   -9.8468   59.8245   32.4771 C   0  0  0  0  0  0  0  0  0  0  0  0
  -11.2575   59.8673   31.8931 C   0  0  0  0  0  0  0  0  0  0  0  0
  -12.3293   60.3003   32.5381 C   0  0  0  0  0  0  0  0  0  0  0  0
  -13.5957   60.2461   31.9552 C   0  0  0  0  0  0  0  0  0  0  0  0
  -13.6237   59.7044   30.6694 C   0  0  0  0  0  0  0  0  0  0  0  0
  -12.5943   59.2438   29.9436 C   0  0  0  0  0  0  0  0  0  0  0  0
  -12.6447   58.7310   28.7531 O   0  0  0  0  0  0  0  0  0  0  0  0
  -12.7559   58.4690   27.4963 C   0  0  0  0  0  0  0  0  0  0  0  0
  -12.9580   56.6616   27.0921 Si  0  0  0  0  0  4  0  0  0  0  0  0
  -12.9455   56.4608   25.2375 C   0  0  0  0  0  0  0  0  0  0  0  0
  -11.5030   55.7335   27.8423 C   0  0  0  0  0  0  0  0  0  0  0  0
  -14.5372   55.9798   27.7487 C   0  0  0  0  0  0  0  0  0  0  0  0
  -15.4812   56.8860   28.2589 C   0  0  0  0  0  0  0  0  0  0  0  0
  -16.6283   56.4295   28.8742 C   0  0  0  0  0  0  0  0  0  0  0  0
  -16.9062   55.0548   29.0158 C   0  0  0  0  0  0  0  0  0  0  0  0
  -18.0404   54.6876   29.7851 N   0  0  0  0  0  0  0  0  0  0  0  0
  -18.4099   53.3247   30.0604 C   0  0  0  0  0  0  0  0  0  0  0  0
  -18.8626   55.7196   30.3810 C   0  0  0  0  0  0  0  0  0  0  0  0
  -15.9835   54.1662   28.5059 C   0  0  0  0  0  0  0  0  0  0  0  0
  -14.8290   54.6718   27.8923 C   0  0  0  0  0  0  0  0  0  0  0  0
  -11.2956   59.3268   30.5951 C   0  0  0  0  0  0  0  0  0  0  0  0
  1  2  1  0
  2  3  1  0
  3  4  1  0
  4  5  1  0
  5  6  2  0
  6  7  1  0
  7  8  3  0
  8  9  1  0
  9 10  1  0
  9 11  1  0
  9 12  1  0
  3 13  1  0
 13 14  1  0
 14 15  2  0
 15 16  1  0
 16 17  2  0
 17 18  1  0
 18 19  1  0
 19 20  1  0
 20 21  1  0
 21 22  1  0
 21 23  1  0
 21 24  1  0
 24 25  2  0
 25 26  1  0
 26 27  2  0
 27 28  1  0
 28 29  1  0
 28 30  1  0
 27 31  1  0
 31 32  2  0
 18 33  2  0
 33 14  1  0
 32 24  1  0
M  END
$$$$
