
     RDKit          3D

 20 20  0  0  0  0  0  0  0  0999 V2000
   31.4317   82.0846   48.4602 C   0  0  0  0  0  0  0  0  0  0  0  0
   31.6114   81.3506   49.7685 C   0  0  0  0  0  0  0  0  0  0  0  0
   32.6852   81.9188   50.5782 N   0  0  0  0  0  0  0  0  0  0  0  0
   32.2644   82.6856   51.7198 C   0  0  0  0  0  0  0  0  0  0  0  0
   30.8793   83.2277   51.4611 C   0  0  0  0  0  0  0  0  0  0  0  0
   34.0496   81.7908   50.1928 C   0  0  0  0  0  0  0  0  0  0  0  0
   34.2499   81.1436   49.1613 O   0  0  0  0  0  0  0  0  0  0  0  0
   35.0949   82.3953   50.9978 C   0  0  0  0  0  0  0  0  0  0  0  0
   36.3911   81.7114   51.1943 C   0  0  0  0  0  0  0  0  0  0  0  0
   37.3385   81.8244   50.0590 C   0  0  0  0  0  0  0  0  0  0  0  0
   37.8272   80.6684   49.5085 C   0  0  0  0  0  0  0  0  0  0  0  0
   38.7636   80.8091   48.4576 C   0  0  0  0  0  0  0  0  0  0  0  0
   39.1583   82.0512   48.0179 C   0  0  0  0  0  0  0  0  0  0  0  0
   38.6400   83.1544   48.5984 N   0  0  0  0  0  0  0  0  0  0  0  0
   37.7484   83.0473   49.5985 C   0  0  0  0  0  0  0  0  0  0  0  0
   36.9973   81.7217   52.5549 C   0  0  0  0  0  0  0  0  0  0  0  0
   38.1287   80.7118   52.5381 C   0  0  0  0  0  0  0  0  0  0  0  0
   38.9935   79.9209   52.5129 N   0  0  0  0  0  0  0  0  0  0  0  0
   36.0246   81.0650   53.5258 C   0  0  0  0  0  0  0  0  0  0  0  0
   35.2592   80.5626   54.2969 N   0  0  0  0  0  0  0  0  0  0  0  0
  1  2  1  0
  2  3  1  0
  3  4  1  0
  4  5  1  0
  3  6  1  0
  6  7  2  0
  6  8  1  0
  8  9  1  0
  9 10  1  0
 10 11  2  0
 11 12  1  0
 12 13  2  0
 13 14  1  0
 14 15  2  0
  9 16  1  0
 16 17  1  0
 17 18  3  0
 16 19  1  0
 19 20  3  0
 15 10  1  0
M  END
$$$$
