
     RDKit          3D

 25 28  0  0  0  0  0  0  0  0999 V2000
   18.7690   51.2362   16.8217 C   0  0  0  0  0  0  0  0  0  0  0  0
   17.7736   50.3616   16.0900 C   0  0  0  0  0  0  0  0  0  0  0  0
   16.5494   50.2333   16.8887 C   0  0  0  0  0  0  0  0  0  0  0  0
   15.5156   50.9272   16.7462 O   0  0  0  0  0  0  0  0  0  0  0  0
   16.5211   49.2428   17.9130 N   0  0  0  0  0  0  0  0  0  0  0  0
   15.3121   49.0303   18.7244 C   0  0  1  0  0  0  0  0  0  0  0  0
   14.5120   47.8719   18.2187 C   0  0  0  0  0  0  0  0  0  0  0  0
   14.3551   46.8891   19.2694 N   0  0  0  0  0  0  0  0  0  0  0  0
   15.6856   46.3876   19.5870 C   0  0  0  0  0  0  0  0  0  0  0  0
   16.4686   47.4542   20.3003 C   0  0  0  0  0  0  0  0  0  0  0  0
   15.7521   48.7693   20.1583 C   0  0  0  0  0  0  0  0  0  0  0  0
   14.4627   48.6557   20.9770 C   0  0  0  0  0  0  0  0  0  0  0  0
   13.7156   47.4603   20.4333 C   0  0  0  0  0  0  0  0  0  0  0  0
   17.4824   50.8942   14.7631 N   0  0  0  0  0  0  0  0  0  0  0  0
   17.2627   50.2100   13.6301 C   0  0  0  0  0  0  0  0  0  0  0  0
   17.0294   51.1265   12.6268 C   0  0  0  0  0  0  0  0  0  0  0  0
   17.1148   52.4056   13.1909 C   0  0  0  0  0  0  0  0  0  0  0  0
   16.9392   53.6757   12.5069 C   0  0  0  0  0  0  0  0  0  0  0  0
   16.8270   54.8393   13.2298 C   0  0  0  0  0  0  0  0  0  0  0  0
   16.6578   56.0705   12.5945 C   0  0  0  0  0  0  0  0  0  0  0  0
   16.6044   56.1079   11.2341 C   0  0  0  0  0  0  0  0  0  0  0  0
   16.4406   57.2845   10.5708 F   0  0  0  0  0  0  0  0  0  0  0  0
   16.7128   54.9643   10.4734 C   0  0  0  0  0  0  0  0  0  0  0  0
   16.8816   53.7467   11.1411 C   0  0  0  0  0  0  0  0  0  0  0  0
   17.3927   52.1824   14.4915 N   0  0  0  0  0  0  0  0  0  0  0  0
  1  2  1  0
  2  3  1  0
  3  4  2  0
  3  5  1  0
  6  5  1  6
  6  7  1  0
  7  8  1  0
  8  9  1  0
  9 10  1  0
 10 11  1  0
 11 12  1  0
 12 13  1  0
  2 14  1  0
 14 15  1  0
 15 16  2  0
 16 17  1  0
 17 18  1  0
 18 19  2  0
 19 20  1  0
 20 21  2  0
 21 22  1  0
 21 23  1  0
 23 24  2  0
 17 25  2  0
 11  6  1  0
 25 14  1  0
 13  8  1  0
 24 18  1  0
M  END
$$$$
