
     RDKit          3D

 27 29  0  0  0  0  0  0  0  0999 V2000
   16.7368   47.5925   18.5951 C   0  0  0  0  0  0  0  0  0  0  0  0
   17.4130   48.7906   18.2497 O   0  0  0  0  0  0  0  0  0  0  0  0
   16.8113   49.8046   17.5259 C   0  0  0  0  0  0  0  0  0  0  0  0
   17.5367   50.5289   16.5949 C   0  0  0  0  0  0  0  0  0  0  0  0
   16.9190   51.5133   15.9069 C   0  0  0  0  0  0  0  0  0  0  0  0
   15.5480   51.8124   16.1237 C   0  0  0  0  0  0  0  0  0  0  0  0
   15.0382   52.8490   15.3171 N   0  0  0  0  0  0  0  0  0  0  0  0
   15.7228   53.8537   14.6092 C   0  0  0  0  0  0  0  0  0  0  0  0
   16.9617   53.8121   14.5111 O   0  0  0  0  0  0  0  0  0  0  0  0
   14.9843   54.9890   13.9588 C   0  0  0  0  0  0  0  0  0  0  0  0
   15.8909   55.8443   13.1372 C   0  0  0  0  0  0  0  0  0  0  0  0
   15.3007   57.1883   12.9566 C   0  0  0  0  0  0  0  0  0  0  0  0
   15.9493   58.3421   13.3377 C   0  0  0  0  0  0  0  0  0  0  0  0
   17.2743   58.2858   13.9832 C   0  0  0  0  0  0  0  0  0  0  0  0
   15.3371   59.5441   13.1139 N   0  0  0  0  0  0  0  0  0  0  0  0
   14.1331   59.6638   12.5414 C   0  0  0  0  0  0  0  0  0  0  0  0
   13.3680   60.7807   12.2363 C   0  0  0  0  0  0  0  0  0  0  0  0
   13.7442   62.1926   12.4999 C   0  0  0  0  0  0  0  0  0  0  0  0
   12.2233   60.2915   11.6545 C   0  0  0  0  0  0  0  0  0  0  0  0
   12.3443   58.9568   11.6358 N   0  0  0  0  0  0  0  0  0  0  0  0
   13.4848   58.5562   12.1637 N   0  0  0  0  0  0  0  0  0  0  0  0
   14.0758   57.3358   12.3755 C   0  0  0  0  0  0  0  0  0  0  0  0
   13.3038   56.1901   11.9214 C   0  0  0  0  0  0  0  0  0  0  0  0
   14.8418   51.0872   17.0464 C   0  0  0  0  0  0  0  0  0  0  0  0
   13.5198   51.3449   17.2749 O   0  0  0  0  0  0  0  0  0  0  0  0
   12.7498   50.4748   18.0706 C   0  0  0  0  0  0  0  0  0  0  0  0
   15.4825   50.0661   17.7610 C   0  0  0  0  0  0  0  0  0  0  0  0
  1  2  1  0
  2  3  1  0
  3  4  2  0
  4  5  1  0
  5  6  2  0
  6  7  1  0
  7  8  1  0
  8  9  2  0
  8 10  1  0
 10 11  1  0
 11 12  1  0
 12 13  1  0
 13 14  1  0
 13 15  2  0
 15 16  1  0
 16 17  2  0
 17 18  1  0
 17 19  1  0
 19 20  2  0
 20 21  1  0
 21 22  1  0
 22 23  1  0
  6 24  1  0
 24 25  1  0
 25 26  1  0
 24 27  2  0
 27  3  1  0
 22 12  2  0
 21 16  1  0
M  END
$$$$
