
     RDKit          3D

 21 23  0  0  0  0  0  0  0  0999 V2000
   17.6787   50.9247   17.1409 C   0  0  0  0  0  0  0  0  0  0  0  0
   16.5979   51.2061   16.2569 N   0  0  0  0  0  0  0  0  0  0  0  0
   16.9662   51.3001   14.8813 C   0  0  0  0  0  0  0  0  0  0  0  0
   16.5697   52.6284   14.3217 C   0  0  0  0  0  0  0  0  0  0  0  0
   15.3405   53.0043   13.9271 N   0  0  0  0  0  0  0  0  0  0  0  0
   15.3982   54.2781   13.4828 C   0  0  0  0  0  0  0  0  0  0  0  0
   14.4514   55.1495   12.9703 C   0  0  0  0  0  0  0  0  0  0  0  0
   14.7888   56.4262   12.5841 C   0  0  0  0  0  0  0  0  0  0  0  0
   16.1116   56.8204   12.7226 C   0  0  0  0  0  0  0  0  0  0  0  0
   17.0490   55.9483   13.2333 C   0  0  0  0  0  0  0  0  0  0  0  0
   16.7248   54.6573   13.6274 C   0  0  0  0  0  0  0  0  0  0  0  0
   17.4419   53.6369   14.1447 N   0  0  0  0  0  0  0  0  0  0  0  0
   15.3807   50.5126   16.5171 C   0  0  0  0  0  0  0  0  0  0  0  0
   15.5315   49.4225   17.5186 C   0  0  0  0  0  0  0  0  0  0  0  0
   16.7212   48.8633   17.8093 N   0  0  0  0  0  0  0  0  0  0  0  0
   16.5094   47.9224   18.7373 C   0  0  0  0  0  0  0  0  0  0  0  0
   15.1714   47.9181   19.0067 C   0  0  0  0  0  0  0  0  0  0  0  0
   14.5637   48.8672   18.2334 N   0  0  0  0  0  0  0  0  0  0  0  0
   13.1475   49.1327   18.2601 C   0  0  0  0  0  0  0  0  0  0  0  0
   12.5604   49.0472   16.9947 F   0  0  0  0  0  0  0  0  0  0  0  0
   12.4578   48.4242   19.1926 F   0  0  0  0  0  0  0  0  0  0  0  0
  1  2  1  0
  2  3  1  0
  3  4  1  0
  4  5  2  0
  5  6  1  0
  6  7  2  0
  7  8  1  0
  8  9  2  0
  9 10  1  0
 10 11  2  0
 11 12  1  0
  2 13  1  0
 13 14  1  0
 14 15  2  0
 15 16  1  0
 16 17  2  0
 17 18  1  0
 18 19  1  0
 19 20  1  0
 19 21  1  0
 12  4  1  0
 18 14  1  0
 11  6  1  0
M  END
$$$$
