
     RDKit          3D

 26 28  0  0  0  0  0  0  0  0999 V2000
   16.0831   98.6814   53.2843 C   0  0  0  0  0  0  0  0  0  0  0  0
   15.0392   99.2830   54.1527 C   0  0  0  0  0  0  0  0  0  0  0  0
   15.3460  100.0887   55.2095 C   0  0  0  0  0  0  0  0  0  0  0  0
   14.3728  100.6439   56.0117 C   0  0  0  0  0  0  0  0  0  0  0  0
   14.7415  101.4519   57.0650 O   0  0  0  0  0  0  0  0  0  0  0  0
   13.0915  100.3806   55.7409 N   0  0  0  0  0  0  0  0  0  0  0  0
   12.0462  100.9480   56.5648 C   0  0  0  0  0  0  0  0  0  0  0  0
   11.7243  100.1575   57.7727 C   0  0  0  0  0  0  0  0  0  0  0  0
   11.8615  100.7501   59.0035 C   0  0  0  0  0  0  0  0  0  0  0  0
   11.5764  100.0700   60.1754 C   0  0  0  0  0  0  0  0  0  0  0  0
   11.1404   98.7627   60.1723 C   0  0  0  0  0  0  0  0  0  0  0  0
   10.8329   98.0299   61.4410 C   0  0  0  0  0  0  0  0  0  0  0  0
   12.1289   97.5854   62.0341 C   0  0  0  0  0  0  0  0  0  0  0  0
   11.9747   96.5736   63.1260 C   0  0  0  0  0  0  0  0  0  0  0  0
   12.9133   95.4543   63.0144 C   0  0  0  0  0  0  0  0  0  0  0  0
   12.4159   94.1686   62.9549 C   0  0  0  0  0  0  0  0  0  0  0  0
   13.3372   93.1449   62.8501 C   0  0  0  0  0  0  0  0  0  0  0  0
   14.6939   93.3592   62.8045 C   0  0  0  0  0  0  0  0  0  0  0  0
   15.5743   92.3315   62.7012 F   0  0  0  0  0  0  0  0  0  0  0  0
   15.1592   94.6719   62.8671 C   0  0  0  0  0  0  0  0  0  0  0  0
   14.2634   95.7190   62.9722 C   0  0  0  0  0  0  0  0  0  0  0  0
   11.0018   98.1640   58.9389 C   0  0  0  0  0  0  0  0  0  0  0  0
   11.2891   98.8493   57.7545 C   0  0  0  0  0  0  0  0  0  0  0  0
   12.7832   99.5944   54.7094 C   0  0  0  0  0  0  0  0  0  0  0  0
   11.5937   99.3170   54.4109 O   0  0  0  0  0  0  0  0  0  0  0  0
   13.7328   99.0553   53.9301 N   0  0  0  0  0  0  0  0  0  0  0  0
  1  2  1  0
  2  3  1  0
  3  4  2  0
  4  5  1  0
  4  6  1  0
  6  7  1  0
  7  8  1  0
  8  9  2  0
  9 10  1  0
 10 11  2  0
 11 12  1  0
 12 13  1  0
 13 14  1  0
 14 15  1  0
 15 16  2  0
 16 17  1  0
 17 18  2  0
 18 19  1  0
 18 20  1  0
 20 21  2  0
 11 22  1  0
 22 23  2  0
  6 24  1  0
 24 25  2  0
 24 26  1  0
 26  2  2  0
 23  8  1  0
 21 15  1  0
M  END
$$$$
