
     RDKit          3D

 19 19  0  0  0  0  0  0  0  0999 V2000
   17.1366   91.0647   64.0257 C   0  0  0  0  0  0  0  0  0  0  0  0
   15.8611   91.4731   63.2671 C   0  0  0  0  0  0  0  0  0  0  0  0
   15.5840   92.7574   63.6611 O   0  0  0  0  0  0  0  0  0  0  0  0
   14.3418   93.2173   63.3644 C   0  0  0  0  0  0  0  0  0  0  0  0
   14.2155   94.6838   63.5048 C   0  0  0  0  0  0  0  0  0  0  0  0
   12.9167   95.1657   62.9566 C   0  0  0  0  0  0  0  0  0  0  0  0
   11.7570   95.2865   63.1393 N   0  0  0  0  0  0  0  0  0  0  0  0
   10.8986   95.8149   62.3210 N   0  0  0  0  0  0  0  0  0  0  0  0
   11.1320   96.2548   61.2759 C   0  0  0  0  0  0  0  0  0  0  0  0
   10.5150   96.8916   60.1297 N   0  0  0  0  0  0  0  0  0  0  0  0
   11.2425   97.8016   59.3175 C   0  0  0  0  0  0  0  0  0  0  0  0
   12.4721   97.9265   59.5510 O   0  0  0  0  0  0  0  0  0  0  0  0
   10.6034   98.5815   58.2358 C   0  0  0  0  0  0  0  0  0  0  0  0
   11.5621   98.9651   57.2429 N   0  0  0  0  0  0  0  0  0  0  0  0
   11.9665  100.2969   56.9971 C   0  0  0  0  0  0  0  0  0  0  0  0
   11.3398  101.2428   57.5384 O   0  0  0  0  0  0  0  0  0  0  0  0
   13.0696  100.5931   56.1488 N   0  0  0  0  0  0  0  0  0  0  0  0
   13.4983  101.9636   55.8719 C   0  0  0  0  0  0  0  0  0  0  0  0
   13.0068   95.9426   61.2345 S   0  0  0  0  0  0  0  0  0  0  0  0
  1  2  1  0
  2  3  1  0
  3  4  1  0
  4  5  1  0
  5  6  1  0
  6  7  2  0
  7  8  1  0
  8  9  2  0
  9 10  1  0
 10 11  1  0
 11 12  2  0
 11 13  1  0
 13 14  1  0
 14 15  1  0
 15 16  2  0
 15 17  1  0
 17 18  1  0
  9 19  1  0
 19  6  1  0
M  END
$$$$
