
     RDKit          3D

 33 37  0  0  0  0  0  0  0  0999 V2000
   16.7298   55.8793   11.9359 C   0  0  0  0  0  0  0  0  0  0  0  0
   16.4454   55.6153   13.3151 N   0  0  0  0  0  0  0  0  0  0  0  0
   17.0944   54.4584   13.8993 C   0  0  0  0  0  0  0  0  0  0  0  0
   18.1580   54.0957   13.3632 O   0  0  0  0  0  0  0  0  0  0  0  0
   16.4932   53.8016   15.0405 C   0  0  2  0  0  0  0  0  0  0  0  0
   16.3955   52.2991   14.9190 C   0  0  0  0  0  0  0  0  0  0  0  0
   16.5346   51.5198   16.1623 C   0  0  0  0  0  0  0  0  0  0  0  0
   17.8832   50.9002   16.2607 C   0  0  0  0  0  0  0  0  0  0  0  0
   18.8136   50.9377   15.2417 C   0  0  0  0  0  0  0  0  0  0  0  0
   20.0486   50.3523   15.4000 C   0  0  0  0  0  0  0  0  0  0  0  0
   20.4042   49.7047   16.5843 C   0  0  0  0  0  0  0  0  0  0  0  0
   19.4747   49.6681   17.5983 C   0  0  0  0  0  0  0  0  0  0  0  0
   18.2351   50.2515   17.4495 C   0  0  0  0  0  0  0  0  0  0  0  0
   15.5487   50.4143   16.2035 C   0  0  0  0  0  0  0  0  0  0  0  0
   14.2243   50.7167   16.3922 C   0  0  0  0  0  0  0  0  0  0  0  0
   13.2431   49.7246   16.4429 C   0  0  0  0  0  0  0  0  0  0  0  0
   13.6241   48.4203   16.2994 C   0  0  0  0  0  0  0  0  0  0  0  0
   14.9465   48.0991   16.1098 C   0  0  0  0  0  0  0  0  0  0  0  0
   15.8996   49.0916   16.0625 C   0  0  0  0  0  0  0  0  0  0  0  0
   15.1406   54.2510   15.2791 N   0  0  0  0  0  0  0  0  0  0  0  0
   14.5672   55.4464   14.6740 C   0  0  0  0  0  0  0  0  0  0  0  0
   13.3289   55.5471   14.6550 O   0  0  0  0  0  0  0  0  0  0  0  0
   15.5606   56.3982   14.1528 C   0  0  2  0  0  0  0  0  0  0  0  0
   15.2154   57.7421   13.7570 C   0  0  0  0  0  0  0  0  0  0  0  0
   14.1422   58.1145   12.8517 C   0  0  0  0  0  0  0  0  0  0  0  0
   13.1378   57.2236   12.4161 C   0  0  0  0  0  0  0  0  0  0  0  0
   12.2859   57.8587   11.6177 N   0  0  0  0  0  0  0  0  0  0  0  0
   12.6487   59.1461   11.4736 C   0  0  0  0  0  0  0  0  0  0  0  0
   12.0865   60.1739   10.7328 C   0  0  0  0  0  0  0  0  0  0  0  0
   12.6745   61.4144   10.7311 C   0  0  0  0  0  0  0  0  0  0  0  0
   13.8301   61.5693   11.4922 C   0  0  0  0  0  0  0  0  0  0  0  0
   14.3866   60.5441   12.2290 C   0  0  0  0  0  0  0  0  0  0  0  0
   13.7886   59.3070   12.2273 C   0  0  0  0  0  0  0  0  0  0  0  0
  1  2  1  0
  2  3  1  0
  3  4  2  0
  3  5  1  0
  5  6  1  6
  6  7  1  0
  7  8  1  0
  8  9  2  0
  9 10  1  0
 10 11  2  0
 11 12  1  0
 12 13  2  0
  7 14  1  0
 14 15  2  0
 15 16  1  0
 16 17  2  0
 17 18  1  0
 18 19  2  0
  5 20  1  0
 20 21  1  0
 21 22  2  0
 21 23  1  0
 23 24  1  6
 24 25  1  0
 25 26  2  0
 26 27  1  0
 27 28  1  0
 28 29  2  0
 29 30  1  0
 30 31  2  0
 31 32  1  0
 32 33  2  0
 23  2  1  0
 33 25  1  0
 13  8  1  0
 19 14  1  0
 33 28  1  0
M  END
$$$$
