
     RDKit          3D

 21 22  0  0  0  0  0  0  0  0999 V2000
   18.5427   48.5269   19.1123 C   0  0  0  0  0  0  0  0  0  0  0  0
   18.0445   48.5214   17.6954 C   0  0  0  0  0  0  0  0  0  0  0  0
   16.5675   48.5361   17.6848 C   0  0  0  0  0  0  0  0  0  0  0  0
   15.7904   47.4078   17.7796 N   0  0  0  0  0  0  0  0  0  0  0  0
   14.5498   47.7467   17.7536 O   0  0  0  0  0  0  0  0  0  0  0  0
   14.4431   49.0538   17.6454 C   0  0  0  0  0  0  0  0  0  0  0  0
   13.2150   49.8686   17.5801 C   0  0  0  0  0  0  0  0  0  0  0  0
   12.0369   49.0549   18.1110 C   0  0  0  0  0  0  0  0  0  0  0  0
   15.7237   49.6077   17.5971 C   0  0  0  0  0  0  0  0  0  0  0  0
   16.0810   51.0277   17.4689 C   0  0  0  0  0  0  0  0  0  0  0  0
   15.9201   51.5991   16.1238 C   0  0  0  0  0  0  0  0  0  0  0  0
   16.0327   50.9498   15.0553 O   0  0  0  0  0  0  0  0  0  0  0  0
   15.6149   52.9863   15.9936 N   0  0  0  0  0  0  0  0  0  0  0  0
   15.9004   53.7273   14.8238 C   0  0  0  0  0  0  0  0  0  0  0  0
   16.4026   53.0501   13.7308 C   0  0  0  0  0  0  0  0  0  0  0  0
   16.7175   53.6663   12.5409 C   0  0  0  0  0  0  0  0  0  0  0  0
   17.2247   52.9322   11.4607 O   0  0  0  0  0  0  0  0  0  0  0  0
   17.3585   53.5395   10.2097 C   0  0  0  0  0  0  0  0  0  0  0  0
   16.5139   55.0264   12.4577 C   0  0  0  0  0  0  0  0  0  0  0  0
   16.0102   55.6893   13.5622 C   0  0  0  0  0  0  0  0  0  0  0  0
   15.7176   55.0393   14.7055 N   0  0  0  0  0  0  0  0  0  0  0  0
  1  2  1  0
  2  3  1  0
  3  4  2  0
  4  5  1  0
  5  6  1  0
  6  7  1  0
  7  8  1  0
  6  9  2  0
  9 10  1  0
 10 11  1  0
 11 12  2  0
 11 13  1  0
 13 14  1  0
 14 15  2  0
 15 16  1  0
 16 17  1  0
 17 18  1  0
 16 19  2  0
 19 20  1  0
 20 21  2  0
  9  3  1  0
 21 14  1  0
M  END
$$$$
