
     RDKit          3D

 25 27  0  0  0  0  0  0  0  0999 V2000
   12.4090   58.6797   10.9945 C   0  0  0  0  0  0  0  0  0  0  0  0
   13.5501   58.2381   11.8275 C   0  0  0  0  0  0  0  0  0  0  0  0
   14.1804   59.1222   12.6690 C   0  0  0  0  0  0  0  0  0  0  0  0
   15.2313   58.6972   13.4299 C   0  0  0  0  0  0  0  0  0  0  0  0
   15.6987   57.3846   13.3886 C   0  0  0  0  0  0  0  0  0  0  0  0
   15.0805   56.4919   12.5547 C   0  0  0  0  0  0  0  0  0  0  0  0
   15.4674   55.2124   12.4553 O   0  0  0  0  0  0  0  0  0  0  0  0
   15.6531   54.2355   13.4003 C   0  0  0  0  0  0  0  0  0  0  0  0
   16.6121   53.2265   13.1967 C   0  0  0  0  0  0  0  0  0  0  0  0
   16.8201   52.2353   14.1254 C   0  0  0  0  0  0  0  0  0  0  0  0
   16.1008   52.1809   15.2999 C   0  0  0  0  0  0  0  0  0  0  0  0
   16.3018   51.1409   16.2999 C   0  0  0  0  0  0  0  0  0  0  0  0
   15.4118   50.9904   17.1978 N   0  0  0  0  0  0  0  0  0  0  0  0
   15.3596   49.8906   17.9606 O   0  0  0  0  0  0  0  0  0  0  0  0
   17.4254   50.2816   16.3398 N   0  0  0  0  0  0  0  0  0  0  0  0
   17.7854   49.3718   17.3497 C   0  0  0  0  0  0  0  0  0  0  0  0
   19.2603   49.4157   17.6750 C   0  0  0  0  0  0  0  0  0  0  0  0
   19.9969   48.2804   17.9477 C   0  0  0  0  0  0  0  0  0  0  0  0
   21.3432   48.3176   18.2442 C   0  0  0  0  0  0  0  0  0  0  0  0
   21.9929   49.5329   18.2728 C   0  0  0  0  0  0  0  0  0  0  0  0
   21.2901   50.6882   18.0057 C   0  0  0  0  0  0  0  0  0  0  0  0
   19.9487   50.6111   17.7141 C   0  0  0  0  0  0  0  0  0  0  0  0
   15.1663   53.1841   15.4731 C   0  0  0  0  0  0  0  0  0  0  0  0
   14.9759   54.1455   14.5550 N   0  0  0  0  0  0  0  0  0  0  0  0
   14.0067   56.9437   11.7831 C   0  0  0  0  0  0  0  0  0  0  0  0
  1  2  1  0
  2  3  2  0
  3  4  1  0
  4  5  2  0
  5  6  1  0
  6  7  1  0
  7  8  1  0
  8  9  2  0
  9 10  1  0
 10 11  2  0
 11 12  1  0
 12 13  2  0
 13 14  1  0
 12 15  1  0
 15 16  1  0
 16 17  1  0
 17 18  2  0
 18 19  1  0
 19 20  2  0
 20 21  1  0
 21 22  2  0
 11 23  1  0
 23 24  2  0
  6 25  2  0
 25  2  1  0
 24  8  1  0
 22 17  1  0
M  END
$$$$
