
     RDKit          3D

 30 34  0  0  0  0  0  0  0  0999 V2000
   10.4102   97.8038   54.6389 C   0  0  0  0  0  0  0  0  0  0  0  0
   11.4398   98.1792   55.5211 O   0  0  0  0  0  0  0  0  0  0  0  0
   12.3234   99.2189   55.1783 C   0  0  0  0  0  0  0  0  0  0  0  0
   12.1824   99.9172   53.9912 C   0  0  0  0  0  0  0  0  0  0  0  0
   13.0463  100.9318   53.6589 C   0  0  0  0  0  0  0  0  0  0  0  0
   14.0690  101.2452   54.5411 C   0  0  0  0  0  0  0  0  0  0  0  0
   14.1964  100.5368   55.7248 C   0  0  0  0  0  0  0  0  0  0  0  0
   13.3332   99.5137   56.0703 C   0  0  0  0  0  0  0  0  0  0  0  0
   13.4618   98.7645   57.3142 C   0  0  0  0  0  0  0  0  0  0  0  0
   14.5272   98.0084   57.7482 C   0  0  0  0  0  0  0  0  0  0  0  0
   15.8202   97.7884   57.0113 C   0  0  0  0  0  0  0  0  0  0  0  0
   14.1977   97.5084   58.9431 N   0  0  0  0  0  0  0  0  0  0  0  0
   12.9803   97.8983   59.3058 N   0  0  0  0  0  0  0  0  0  0  0  0
   12.2531   97.6444   60.4041 C   0  0  0  0  0  0  0  0  0  0  0  0
   12.7360   96.8287   61.4574 N   0  0  0  0  0  0  0  0  0  0  0  0
   11.9032   96.3820   62.5243 C   0  0  0  0  0  0  0  0  0  0  0  0
   12.3684   95.1034   63.1275 C   0  0  0  0  0  0  0  0  0  0  0  0
   11.9524   94.1246   63.5854 N   0  0  0  0  0  0  0  0  0  0  0  0
   12.5562   93.0804   64.0766 C   0  0  0  0  0  0  0  0  0  0  0  0
   13.9306   93.0824   64.0792 C   0  0  0  0  0  0  0  0  0  0  0  0
   14.2161   94.7477   63.2990 S   0  0  0  0  0  0  0  0  0  0  0  0
   14.8828   92.1250   64.5338 C   0  0  0  0  0  0  0  0  0  0  0  0
   14.1751   91.1771   65.5008 C   0  0  0  0  0  0  0  0  0  0  0  0
   12.8970   90.7822   64.8356 C   0  0  0  0  0  0  0  0  0  0  0  0
   11.9053   91.8548   64.6556 C   0  0  0  0  0  0  0  0  0  0  0  0
   11.0007   98.2136   60.4731 C   0  0  0  0  0  0  0  0  0  0  0  0
   10.5055   99.0105   59.4646 C   0  0  0  0  0  0  0  0  0  0  0  0
    9.1464   99.5770   59.6320 C   0  0  0  0  0  0  0  0  0  0  0  0
   11.2689   99.2444   58.3706 N   0  0  0  0  0  0  0  0  0  0  0  0
   12.5071   98.6795   58.3065 C   0  0  0  0  0  0  0  0  0  0  0  0
  1  2  1  0
  2  3  1  0
  3  4  2  0
  4  5  1  0
  5  6  2  0
  6  7  1  0
  7  8  2  0
  8  9  1  0
  9 10  1  0
 10 11  1  0
 10 12  2  0
 12 13  1  0
 13 14  1  0
 14 15  1  0
 15 16  1  0
 16 17  1  0
 17 18  2  0
 18 19  1  0
 19 20  2  0
 20 21  1  0
 20 22  1  0
 22 23  1  0
 23 24  1  0
 24 25  1  0
 14 26  2  0
 26 27  1  0
 27 28  1  0
 27 29  2  0
 29 30  1  0
  8  3  1  0
 30  9  2  0
 30 13  1  0
 21 17  1  0
 25 19  1  0
M  END
$$$$
