
     RDKit          3D

 27 30  0  0  0  0  0  0  0  0999 V2000
   17.4317   51.4553   15.9651 O   0  0  0  0  0  0  0  0  0  0  0  0
   16.2207   51.7350   15.9635 C   0  0  0  0  0  0  0  0  0  0  0  0
   15.5734   52.7226   15.1001 C   0  0  0  0  0  0  0  0  0  0  0  0
   16.3158   53.0563   13.9683 O   0  0  0  0  0  0  0  0  0  0  0  0
   16.1715   54.3399   13.4475 C   0  0  0  0  0  0  0  0  0  0  0  0
   17.1087   54.8945   12.5793 C   0  0  0  0  0  0  0  0  0  0  0  0
   17.0066   56.1401   12.0495 C   0  0  0  0  0  0  0  0  0  0  0  0
   15.9175   56.9157   12.3796 C   0  0  0  0  0  0  0  0  0  0  0  0
   15.8329   58.1773   11.8309 C   0  0  0  0  0  0  0  0  0  0  0  0
   16.7255   58.5973   11.0557 O   0  0  0  0  0  0  0  0  0  0  0  0
   14.7389   58.9477   12.1666 C   0  0  0  0  0  0  0  0  0  0  0  0
   14.6105   60.2173   11.6423 C   0  0  0  0  0  0  0  0  0  0  0  0
   13.5326   61.0046   11.9596 C   0  0  0  0  0  0  0  0  0  0  0  0
   13.4305   62.7439   11.1937 Br  0  0  0  0  0  0  0  0  0  0  0  0
   12.5835   60.5020   12.8106 C   0  0  0  0  0  0  0  0  0  0  0  0
   12.7116   59.2160   13.3429 C   0  0  0  0  0  0  0  0  0  0  0  0
   13.7982   58.4180   13.0252 C   0  0  0  0  0  0  0  0  0  0  0  0
   13.9259   57.1933   13.5285 O   0  0  0  0  0  0  0  0  0  0  0  0
   14.9502   56.4267   13.2358 C   0  0  0  0  0  0  0  0  0  0  0  0
   15.0911   55.1516   13.7547 C   0  0  0  0  0  0  0  0  0  0  0  0
   15.3812   51.0211   16.8967 N   0  0  0  0  0  0  0  0  0  0  0  0
   15.5641   49.6325   17.1797 C   0  0  0  0  0  0  0  0  0  0  0  0
   14.4511   49.1544   18.0358 C   0  0  0  0  0  0  0  0  0  0  0  0
   14.6060   48.5968   19.3098 C   0  0  0  0  0  0  0  0  0  0  0  0
   13.3439   48.2894   19.7566 C   0  0  0  0  0  0  0  0  0  0  0  0
   12.4664   48.6585   18.7665 C   0  0  0  0  0  0  0  0  0  0  0  0
   13.1582   49.1610   17.7760 O   0  0  0  0  0  0  0  0  0  0  0  0
  1  2  2  0
  2  3  1  0
  3  4  1  0
  4  5  1  0
  5  6  2  0
  6  7  1  0
  7  8  2  0
  8  9  1  0
  9 10  2  0
  9 11  1  0
 11 12  2  0
 12 13  1  0
 13 14  1  0
 13 15  2  0
 15 16  1  0
 16 17  2  0
 17 18  1  0
 18 19  1  0
 19 20  2  0
  2 21  1  0
 21 22  1  0
 22 23  1  0
 23 24  2  0
 24 25  1  0
 25 26  2  0
 26 27  1  0
 20  5  1  0
 27 23  1  0
 19  8  1  0
 17 11  1  0
M  END
$$$$
