
     RDKit          3D

 31 33  0  0  0  0  0  0  0  0999 V2000
   37.5172   80.3179   49.4111 C   0  0  0  0  0  0  0  0  0  0  0  0
   38.2029   80.3237   50.7322 C   0  0  0  0  0  0  0  0  0  0  0  0
   39.3078   79.4852   50.9079 C   0  0  0  0  0  0  0  0  0  0  0  0
   39.9475   79.4504   52.1075 C   0  0  0  0  0  0  0  0  0  0  0  0
   39.5345   80.2287   53.1763 C   0  0  0  0  0  0  0  0  0  0  0  0
   40.3919   80.1505   54.7097 Cl  0  0  0  0  0  0  0  0  0  0  0  0
   38.4475   81.0455   52.9821 C   0  0  0  0  0  0  0  0  0  0  0  0
   37.7672   81.1107   51.7732 C   0  0  0  0  0  0  0  0  0  0  0  0
   36.6431   82.0131   51.6371 N   0  0  0  0  0  0  0  0  0  0  0  0
   35.7644   82.1191   52.7545 C   0  0  0  0  0  0  0  0  0  0  0  0
   34.6765   83.1512   52.4598 C   0  0  0  0  0  0  0  0  0  0  0  0
   34.2073   82.8631   51.1213 N   0  0  0  0  0  0  0  0  0  0  0  0
   32.9428   82.3269   50.7989 C   0  0  0  0  0  0  0  0  0  0  0  0
   32.0569   82.1366   51.7990 N   0  0  0  0  0  0  0  0  0  0  0  0
   30.8305   81.6403   51.6177 C   0  0  0  0  0  0  0  0  0  0  0  0
   29.9288   81.4715   52.7687 C   0  0  0  0  0  0  0  0  0  0  0  0
   29.4618   80.1588   52.8133 F   0  0  0  0  0  0  0  0  0  0  0  0
   30.6542   81.6487   53.9408 F   0  0  0  0  0  0  0  0  0  0  0  0
   28.8682   82.3206   52.6694 F   0  0  0  0  0  0  0  0  0  0  0  0
   30.4349   81.3002   50.3460 C   0  0  0  0  0  0  0  0  0  0  0  0
   31.3221   81.4813   49.2779 C   0  0  0  0  0  0  0  0  0  0  0  0
   32.5878   82.0026   49.5279 C   0  0  0  0  0  0  0  0  0  0  0  0
   33.5080   82.1966   48.4033 C   0  0  0  0  0  0  0  0  0  0  0  0
   33.0126   81.5319   47.1895 N   0  0  0  0  0  0  0  0  0  0  0  0
   32.6820   82.3303   46.0695 C   0  0  0  0  0  0  0  0  0  0  0  0
   33.3083   83.4334   45.9156 O   0  0  0  0  0  0  0  0  0  0  0  0
   31.6460   81.9184   45.0956 C   0  0  0  0  0  0  0  0  0  0  0  0
   32.3281   81.2479   43.9277 C   0  0  0  0  0  0  0  0  0  0  0  0
   30.8385   83.1043   44.6967 C   0  0  0  0  0  0  0  0  0  0  0  0
   35.1505   83.1679   50.0535 C   0  0  0  0  0  0  0  0  0  0  0  0
   36.5420   82.7056   50.3809 C   0  0  0  0  0  0  0  0  0  0  0  0
  1  2  1  0
  2  3  2  0
  3  4  1  0
  4  5  2  0
  5  6  1  0
  5  7  1  0
  7  8  2  0
  8  9  1  0
  9 10  1  0
 10 11  1  0
 11 12  1  0
 12 13  1  0
 13 14  2  0
 14 15  1  0
 15 16  1  0
 16 17  1  0
 16 18  1  0
 16 19  1  0
 15 20  2  0
 20 21  1  0
 21 22  2  0
 22 23  1  0
 23 24  1  0
 24 25  1  0
 25 26  2  0
 25 27  1  0
 27 28  1  0
 27 29  1  0
 12 30  1  0
 30 31  1  0
  8  2  1  0
 31  9  1  0
 22 13  1  0
M  END
$$$$
