
     RDKit          3D

 36 41  0  0  0  0  0  0  0  0999 V2000
   14.3139   61.2542   15.8058 C   0  0  0  0  0  0  0  0  0  0  0  0
   13.8650   60.6895   14.6362 O   0  0  0  0  0  0  0  0  0  0  0  0
   14.8834   60.3105   13.7652 C   0  0  0  0  0  0  0  0  0  0  0  0
   15.0723   61.3652   12.6677 C   0  0  0  0  0  0  0  0  0  0  0  0
   14.2521   61.1364   11.5895 O   0  0  0  0  0  0  0  0  0  0  0  0
   12.9937   60.6740   11.9301 C   0  0  0  0  0  0  0  0  0  0  0  0
   13.0012   59.3207   12.5604 C   0  0  0  0  0  0  0  0  0  0  0  0
   14.4137   59.0529   13.0767 C   0  0  0  0  0  0  0  0  0  0  0  0
   14.4790   57.8679   13.8645 N   0  0  0  0  0  0  0  0  0  0  0  0
   15.7462   57.2001   13.6883 C   0  0  0  0  0  0  0  0  0  0  0  0
   15.9499   56.9985   12.2058 C   0  0  0  0  0  0  0  0  0  0  0  0
   16.5911   55.6287   12.0630 C   0  0  0  0  0  0  0  0  0  0  0  0
   15.9484   54.8635   10.9250 C   0  0  0  0  0  0  0  0  0  0  0  0
   15.0645   53.8154   11.5258 C   0  0  0  0  0  0  0  0  0  0  0  0
   15.4013   53.7182   12.9855 C   0  0  0  0  0  0  0  0  0  0  0  0
   16.3401   54.8618   13.3147 C   0  0  0  0  0  0  0  0  0  0  0  0
   17.5658   54.4350   14.0189 C   0  0  0  0  0  0  0  0  0  0  0  0
   18.7138   54.8950   13.6826 O   0  0  0  0  0  0  0  0  0  0  0  0
   17.5282   53.5180   15.0761 N   0  0  0  0  0  0  0  0  0  0  0  0
   16.4465   53.2453   15.9796 C   0  0  0  0  0  0  0  0  0  0  0  0
   17.0448   52.3146   17.0302 C   0  0  0  0  0  0  0  0  0  0  0  0
   18.5006   52.8169   16.9985 C   0  0  0  0  0  0  0  0  0  0  0  0
   18.6234   52.6449   15.4707 C   0  0  0  0  0  0  0  0  0  0  0  0
   18.1696   51.2307   15.3260 C   0  0  0  0  0  0  0  0  0  0  0  0
   17.2125   51.0477   16.3989 N   0  0  0  0  0  0  0  0  0  0  0  0
   16.5678   49.8438   16.7557 C   0  0  0  0  0  0  0  0  0  0  0  0
   15.2393   49.7777   17.1745 C   0  0  0  0  0  0  0  0  0  0  0  0
   14.6463   48.5841   17.5150 C   0  0  0  0  0  0  0  0  0  0  0  0
   13.2334   48.5409   17.9562 C   0  0  0  0  0  0  0  0  0  0  0  0
   12.5271   49.5523   17.3104 F   0  0  0  0  0  0  0  0  0  0  0  0
   12.6212   47.3563   17.5980 F   0  0  0  0  0  0  0  0  0  0  0  0
   13.1611   48.7885   19.3092 F   0  0  0  0  0  0  0  0  0  0  0  0
   15.3497   47.4054   17.4533 C   0  0  0  0  0  0  0  0  0  0  0  0
   16.6716   47.4897   17.0343 C   0  0  0  0  0  0  0  0  0  0  0  0
   17.2276   48.6748   16.7064 N   0  0  0  0  0  0  0  0  0  0  0  0
   15.6189   55.8063   14.2677 C   0  0  0  0  0  0  0  0  0  0  0  0
  1  2  1  0
  2  3  1  0
  3  4  1  0
  4  5  1  0
  5  6  1  0
  6  7  1  0
  7  8  1  0
  8  9  1  0
  9 10  1  0
 10 11  1  0
 11 12  1  0
 12 13  1  0
 13 14  1  0
 14 15  1  0
 15 16  1  0
 16 17  1  0
 17 18  2  0
 17 19  1  0
 19 20  1  0
 20 21  1  0
 21 22  1  0
 22 23  1  0
 23 24  1  0
 24 25  1  0
 25 26  1  0
 26 27  2  0
 27 28  1  0
 28 29  1  0
 29 30  1  0
 29 31  1  0
 29 32  1  0
 28 33  2  0
 33 34  1  0
 34 35  2  0
 16 36  1  0
  8  3  1  0
 36 10  1  0
 16 12  1  0
 23 19  1  0
 35 26  1  0
 25 21  1  0
M  END
$$$$
