
     RDKit          3D

 22 24  0  0  0  0  0  0  0  0999 V2000
   42.6039   85.3337   54.5303 C   0  0  0  0  0  0  0  0  0  0  0  0
   41.1123   85.4013   54.3777 C   0  0  0  0  0  0  0  0  0  0  0  0
   40.5527   84.0807   54.4743 O   0  0  0  0  0  0  0  0  0  0  0  0
   40.0978   83.4904   53.3095 C   0  0  0  0  0  0  0  0  0  0  0  0
   40.7916   83.4842   52.2521 O   0  0  0  0  0  0  0  0  0  0  0  0
   38.8268   82.8437   53.1899 N   0  0  0  0  0  0  0  0  0  0  0  0
   38.6196   81.6275   52.4875 C   0  0  0  0  0  0  0  0  0  0  0  0
   37.6454   80.7362   53.2110 C   0  0  0  0  0  0  0  0  0  0  0  0
   36.2096   81.0134   52.9132 C   0  0  0  0  0  0  0  0  0  0  0  0
   35.9149   81.2555   51.4757 C   0  0  0  0  0  0  0  0  0  0  0  0
   34.5091   81.7440   51.2941 C   0  0  0  0  0  0  0  0  0  0  0  0
   33.8996   81.9781   50.1184 N   0  0  0  0  0  0  0  0  0  0  0  0
   32.6447   82.4066   50.3172 C   0  0  0  0  0  0  0  0  0  0  0  0
   31.6372   82.7709   49.4578 C   0  0  0  0  0  0  0  0  0  0  0  0
   30.4175   83.1809   49.9404 C   0  0  0  0  0  0  0  0  0  0  0  0
   30.1877   83.2322   51.3071 C   0  0  0  0  0  0  0  0  0  0  0  0
   31.2210   82.8596   52.1407 C   0  0  0  0  0  0  0  0  0  0  0  0
   30.9952   82.9086   53.5935 C   0  0  0  0  0  0  0  0  0  0  0  0
   32.4542   82.4446   51.6706 C   0  0  0  0  0  0  0  0  0  0  0  0
   33.6055   82.0362   52.2351 N   0  0  0  0  0  0  0  0  0  0  0  0
   36.8446   82.3697   50.9980 C   0  0  0  0  0  0  0  0  0  0  0  0
   38.2508   81.7708   51.0489 C   0  0  0  0  0  0  0  0  0  0  0  0
  1  2  1  0
  2  3  1  0
  3  4  1  0
  4  5  2  0
  4  6  1  0
  6  7  1  0
  7  8  1  0
  8  9  1  0
  9 10  1  0
 10 11  1  0
 11 12  2  0
 12 13  1  0
 13 14  2  0
 14 15  1  0
 15 16  2  0
 16 17  1  0
 17 18  1  0
 17 19  2  0
 19 20  1  0
 10 21  1  0
 21 22  1  0
 22  7  1  0
 20 11  1  0
 19 13  1  0
M  END
$$$$
