
     RDKit          3D

 20 21  0  0  0  0  0  0  0  0999 V2000
   12.2502   57.2174   12.3620 C   0  0  0  0  0  0  0  0  0  0  0  0
   13.5502   56.4447   12.4343 C   0  0  0  0  0  0  0  0  0  0  0  0
   14.5006   56.7243   11.6885 O   0  0  0  0  0  0  0  0  0  0  0  0
   13.6670   55.3939   13.3691 N   0  0  0  0  0  0  0  0  0  0  0  0
   14.7993   54.5874   13.6158 C   0  0  0  0  0  0  0  0  0  0  0  0
   14.8958   53.5998   14.5726 C   0  0  0  0  0  0  0  0  0  0  0  0
   16.0235   52.8234   14.7922 C   0  0  0  0  0  0  0  0  0  0  0  0
   16.1073   51.8234   15.7908 N   0  0  0  0  0  0  0  0  0  0  0  0
   15.0345   51.2109   16.4662 C   0  0  0  0  0  0  0  0  0  0  0  0
   15.3217   50.0911   17.4468 C   0  0  0  0  0  0  0  0  0  0  0  0
   13.8565   51.5695   16.2750 O   0  0  0  0  0  0  0  0  0  0  0  0
   17.1203   53.0838   13.9712 C   0  0  0  0  0  0  0  0  0  0  0  0
   18.2514   52.4140   14.0838 N   0  0  0  0  0  0  0  0  0  0  0  0
   19.3161   52.6779   13.2786 C   0  0  0  0  0  0  0  0  0  0  0  0
   20.3575   52.0167   13.4274 O   0  0  0  0  0  0  0  0  0  0  0  0
   19.2697   53.6520   12.3097 C   0  0  0  0  0  0  0  0  0  0  0  0
   18.1117   54.3798   12.1519 C   0  0  0  0  0  0  0  0  0  0  0  0
   18.0301   55.4393   11.1145 C   0  0  0  0  0  0  0  0  0  0  0  0
   17.0530   54.0806   12.9900 C   0  0  0  0  0  0  0  0  0  0  0  0
   15.9123   54.8076   12.8277 C   0  0  0  0  0  0  0  0  0  0  0  0
  1  2  1  0
  2  3  2  0
  2  4  1  0
  4  5  1  0
  5  6  2  0
  6  7  1  0
  7  8  1  0
  8  9  1  0
  9 10  1  0
  9 11  2  0
  7 12  2  0
 12 13  1  0
 13 14  1  0
 14 15  2  0
 14 16  1  0
 16 17  2  0
 17 18  1  0
 17 19  1  0
 19 20  2  0
 20  5  1  0
 19 12  1  0
M  END
$$$$
