
     RDKit          3D

 15 17  0  0  0  0  0  0  0  0999 V2000
   12.0678   49.8160   17.2637 C   0  0  0  0  0  0  0  0  0  0  0  0
   13.1751   48.9399   17.9383 C   0  0  0  0  0  0  0  0  0  0  0  0
   12.8418   47.5469   17.5484 C   0  0  0  0  0  0  0  0  0  0  0  0
   13.5348   49.4291   19.2474 C   0  0  0  0  0  0  0  0  0  0  0  0
   14.1062   48.7270   20.3995 C   0  0  0  0  0  0  0  0  0  0  0  0
   14.4907   47.3162   20.3583 C   0  0  0  0  0  0  0  0  0  0  0  0
   15.7434   46.9501   19.6697 C   0  0  0  0  0  0  0  0  0  0  0  0
   15.8363   45.4483   19.5308 C   0  0  0  0  0  0  0  0  0  0  0  0
   16.9043   47.3596   20.5925 C   0  0  0  0  0  0  0  0  0  0  0  0
   16.8823   46.6400   21.7663 O   0  0  0  0  0  0  0  0  0  0  0  0
   18.0859   47.1201   19.7306 C   0  0  0  0  0  0  0  0  0  0  0  0
   17.6242   47.4489   18.3636 C   0  0  0  0  0  0  0  0  0  0  0  0
   16.0890   47.5975   18.4138 C   0  0  0  0  0  0  0  0  0  0  0  0
   15.8017   49.0426   18.2952 C   0  0  0  0  0  0  0  0  0  0  0  0
   14.4653   49.5540   18.0446 C   0  0  0  0  0  0  0  0  0  0  0  0
  1  2  1  0
  2  3  1  0
  2  4  1  0
  4  5  1  0
  5  6  1  0
  6  7  1  0
  7  8  1  0
  7  9  1  0
  9 10  1  0
  9 11  1  0
 11 12  1  0
 12 13  1  0
 13 14  1  0
 14 15  1  0
 15  2  1  0
 15  4  1  0
 13  7  1  0
M  END
$$$$
