
     RDKit          3D

 35 39  0  0  0  0  0  0  0  0999 V2000
   17.9728   56.2582   10.4638 C   0  0  0  0  0  0  0  0  0  0  0  0
   17.7948   55.3257   11.6343 C   0  0  0  0  0  0  0  0  0  0  0  0
   17.1732   54.0317   11.2862 C   0  0  0  0  0  0  0  0  0  0  0  0
   17.7348   53.2287   10.2957 C   0  0  0  0  0  0  0  0  0  0  0  0
   17.2042   52.0118    9.9171 C   0  0  0  0  0  0  0  0  0  0  0  0
   16.0756   51.5782   10.5438 C   0  0  0  0  0  0  0  0  0  0  0  0
   15.4794   52.3352   11.5306 C   0  0  0  0  0  0  0  0  0  0  0  0
   14.2357   51.8132   12.1886 C   0  0  0  0  0  0  0  0  0  0  0  0
   16.0385   53.5464   11.8839 C   0  0  0  0  0  0  0  0  0  0  0  0
   15.3899   54.3084   12.9593 C   0  0  0  0  0  0  0  0  0  0  0  0
   14.7418   55.5021   12.6862 C   0  0  0  0  0  0  0  0  0  0  0  0
   14.1293   56.2520   13.6746 C   0  0  0  0  0  0  0  0  0  0  0  0
   13.4366   57.4602   13.3673 N   0  0  0  0  0  0  0  0  0  0  0  0
   12.6167   58.2141   14.2566 C   0  0  0  0  0  0  0  0  0  0  0  0
   13.3961   59.3250   14.9291 C   0  0  0  0  0  0  0  0  0  0  0  0
   13.2081   60.0910   13.6768 N   0  0  0  0  0  0  0  0  0  0  0  0
   11.9567   59.3762   13.5088 C   0  0  0  0  0  0  0  0  0  0  0  0
   14.2108   55.7373   14.9089 N   0  0  0  0  0  0  0  0  0  0  0  0
   14.8136   54.5975   15.2543 C   0  0  0  0  0  0  0  0  0  0  0  0
   14.8406   54.0683   16.5729 N   0  0  0  0  0  0  0  0  0  0  0  0
   15.1059   52.7409   16.9493 C   0  0  0  0  0  0  0  0  0  0  0  0
   14.3172   52.0649   17.8507 C   0  0  0  0  0  0  0  0  0  0  0  0
   14.6342   50.7431   18.1347 C   0  0  0  0  0  0  0  0  0  0  0  0
   15.7015   50.1036   17.5456 C   0  0  0  0  0  0  0  0  0  0  0  0
   15.9671   48.7357   17.8934 C   0  0  0  0  0  0  0  0  0  0  0  0
   15.2641   47.8413   17.3612 O   0  0  0  0  0  0  0  0  0  0  0  0
   16.9702   48.3765   18.7946 N   0  0  0  0  0  0  0  0  0  0  0  0
   17.8804   49.3469   19.4019 C   0  0  0  0  0  0  0  0  0  0  0  0
   18.3865   48.7215   20.6644 C   0  0  0  0  0  0  0  0  0  0  0  0
   19.1712   47.5903   20.4325 O   0  0  0  0  0  0  0  0  0  0  0  0
   18.6798   46.8413   19.3634 C   0  0  0  0  0  0  0  0  0  0  0  0
   17.1812   47.0033   19.2061 C   0  0  0  0  0  0  0  0  0  0  0  0
   16.4624   50.8044   16.6569 C   0  0  0  0  0  0  0  0  0  0  0  0
   16.2046   52.1146   16.3306 C   0  0  0  0  0  0  0  0  0  0  0  0
   15.4024   53.8991   14.2343 N   0  0  0  0  0  0  0  0  0  0  0  0
  1  2  1  0
  2  3  1  0
  3  4  2  0
  4  5  1  0
  5  6  2  0
  6  7  1  0
  7  8  1  0
  7  9  2  0
  9 10  1  0
 10 11  2  0
 11 12  1  0
 12 13  1  0
 13 14  1  0
 14 15  1  0
 15 16  1  0
 16 17  1  0
 12 18  2  0
 18 19  1  0
 19 20  1  0
 20 21  1  0
 21 22  2  0
 22 23  1  0
 23 24  2  0
 24 25  1  0
 25 26  2  0
 25 27  1  0
 27 28  1  0
 28 29  1  0
 29 30  1  0
 30 31  1  0
 31 32  1  0
 24 33  1  0
 33 34  2  0
 19 35  2  0
  9  3  1  0
 35 10  1  0
 17 14  1  0
 34 21  1  0
 32 27  1  0
M  END
$$$$
