
     RDKit          3D

 34 37  0  0  0  0  0  0  0  0999 V2000
   42.3624   86.6325   52.0832 N   0  0  0  0  0  0  0  0  0  0  0  0
   42.7077   85.6333   52.7187 C   0  0  0  0  0  0  0  0  0  0  0  0
   43.1135   84.3839   53.5212 C   0  0  0  0  0  0  0  0  0  0  0  0
   41.9270   83.8102   54.1376 C   0  0  0  0  0  0  0  0  0  0  0  0
   41.4679   84.4721   55.1496 O   0  0  0  0  0  0  0  0  0  0  0  0
   41.2429   82.6335   53.7226 N   0  0  0  0  0  0  0  0  0  0  0  0
   41.6325   81.8089   52.6267 C   0  0  0  0  0  0  0  0  0  0  0  0
   40.4199   82.0475   51.6464 C   0  0  0  0  0  0  0  0  0  0  0  0
   39.2658   81.2688   52.2190 C   0  0  0  0  0  0  0  0  0  0  0  0
   37.9667   81.6467   51.6987 C   0  0  0  0  0  0  0  0  0  0  0  0
   36.8617   81.4349   52.3476 C   0  0  0  0  0  0  0  0  0  0  0  0
   35.5391   81.6796   52.0332 C   0  0  0  0  0  0  0  0  0  0  0  0
   35.4051   82.2998   50.6828 C   0  0  0  0  0  0  0  0  0  0  0  0
   34.0719   82.4592   50.1767 C   0  0  0  0  0  0  0  0  0  0  0  0
   33.1143   82.8569   51.1847 C   0  0  0  0  0  0  0  0  0  0  0  0
   31.8640   83.1626   50.7030 C   0  0  0  0  0  0  0  0  0  0  0  0
   31.4140   83.1512   49.4745 C   0  0  0  0  0  0  0  0  0  0  0  0
   30.0838   83.5844   49.1137 C   0  0  0  0  0  0  0  0  0  0  0  0
   29.4348   84.6078   49.9060 N   0  0  0  0  0  0  0  0  0  0  0  0
   29.4460   83.1263   48.1646 O   0  0  0  0  0  0  0  0  0  0  0  0
   32.3493   82.7545   48.4357 C   0  0  0  0  0  0  0  0  0  0  0  0
   31.9952   82.7254   47.1161 N   0  0  0  0  0  0  0  0  0  0  0  0
   32.8692   82.4653   46.0069 C   0  0  0  0  0  0  0  0  0  0  0  0
   32.4361   83.0361   44.6975 C   0  0  0  0  0  0  0  0  0  0  0  0
   31.5395   82.1393   43.8607 C   0  0  0  0  0  0  0  0  0  0  0  0
   31.9834   80.8463   43.8094 O   0  0  0  0  0  0  0  0  0  0  0  0
   33.1874   80.6321   44.4057 C   0  0  0  0  0  0  0  0  0  0  0  0
   33.3243   81.0363   45.8532 C   0  0  0  0  0  0  0  0  0  0  0  0
   33.6433   82.4333   48.9292 C   0  0  0  0  0  0  0  0  0  0  0  0
   36.4858   82.5187   50.0308 C   0  0  0  0  0  0  0  0  0  0  0  0
   37.8237   82.2515   50.3991 C   0  0  0  0  0  0  0  0  0  0  0  0
   38.8171   82.5201   49.6277 F   0  0  0  0  0  0  0  0  0  0  0  0
   39.3966   81.0938   53.7071 C   0  0  0  0  0  0  0  0  0  0  0  0
   39.9857   82.3009   54.3661 C   0  0  0  0  0  0  0  0  0  0  0  0
  1  2  3  0
  2  3  1  0
  3  4  1  0
  4  5  2  0
  4  6  1  0
  6  7  1  0
  7  8  1  0
  8  9  1  0
  9 10  1  0
 10 11  2  0
 11 12  1  0
 12 13  2  0
 13 14  1  0
 14 15  2  0
 15 16  1  0
 16 17  2  0
 17 18  1  0
 18 19  1  0
 18 20  2  0
 17 21  1  0
 21 22  1  0
 22 23  1  0
 23 24  1  0
 24 25  1  0
 25 26  1  0
 26 27  1  0
 27 28  1  0
 21 29  2  0
 13 30  1  0
 30 31  2  0
 31 32  1  0
  9 33  1  0
 33 34  1  0
 34  6  1  0
 31 10  1  0
 29 14  1  0
 28 23  1  0
M  END
$$$$
