
     RDKit          3D

 28 28  0  0  0  0  0  0  0  0999 V2000
   10.8116   91.8056   64.9727 C   0  0  0  0  0  0  0  0  0  0  0  0
   12.1989   92.0464   65.4794 C   0  0  0  0  0  0  0  0  0  0  0  0
   12.7404   93.3952   64.9863 C   0  0  0  0  0  0  0  0  0  0  0  0
   12.7604   93.3833   63.4809 C   0  0  0  0  0  0  0  0  0  0  0  0
   13.2850   94.6703   62.9358 C   0  0  0  0  0  0  0  0  0  0  0  0
   12.4698   95.8840   63.3359 C   0  0  0  0  0  0  0  0  0  0  0  0
   13.0431   97.1064   62.7581 C   0  0  0  0  0  0  0  0  0  0  0  0
   14.4681   97.4544   63.1437 C   0  0  0  0  0  0  0  0  0  0  0  0
   12.4290   97.9285   61.9339 C   0  0  0  0  0  0  0  0  0  0  0  0
   11.0614   97.7383   61.4668 C   0  0  0  0  0  0  0  0  0  0  0  0
   11.0823   97.6110   59.9314 C   0  0  0  0  0  0  0  0  0  0  0  0
   11.6480   98.8397   59.3516 C   0  0  0  0  0  0  0  0  0  0  0  0
   10.9676  100.1771   59.6075 C   0  0  0  0  0  0  0  0  0  0  0  0
   12.7310   98.8143   58.6146 C   0  0  0  0  0  0  0  0  0  0  0  0
   13.5107   97.6156   58.2692 C   0  0  0  0  0  0  0  0  0  0  0  0
   13.5156   97.4790   56.8181 N   0  0  0  0  0  0  0  0  0  0  0  0
   14.0703   98.4943   56.0150 C   0  0  0  0  0  0  0  0  0  0  0  0
   14.5838   99.5467   56.4381 O   0  0  0  0  0  0  0  0  0  0  0  0
   14.0556   98.3314   54.6275 O   0  0  0  0  0  0  0  0  0  0  0  0
   14.5988   99.3196   53.7790 C   0  0  1  0  0  0  0  0  0  0  0  0
   15.6875   98.8080   52.8954 C   0  0  0  0  0  0  0  0  0  0  0  0
   15.5989   99.4970   51.6210 N   0  0  0  0  0  0  0  0  0  0  0  0
   15.3211  100.9129   51.7771 C   0  0  0  0  0  0  0  0  0  0  0  0
   13.9092  101.1161   52.2853 C   0  0  0  0  0  0  0  0  0  0  0  0
   13.4626   99.8021   52.8923 C   0  0  0  0  0  0  0  0  0  0  0  0
   13.2930   98.8236   51.7364 C   0  0  0  0  0  0  0  0  0  0  0  0
   14.5082   98.9223   50.8557 C   0  0  0  0  0  0  0  0  0  0  0  0
   13.1464   97.6694   58.1925 Cl  0  0  0  0  0  0  0  0  0  0  0  0
  1  2  1  0
  2  3  1  0
  3  4  1  0
  4  5  1  0
  5  6  1  0
  6  7  1  0
  7  8  1  0
  7  9  2  0
  9 10  1  0
 10 11  1  0
 11 12  1  0
 12 13  1  0
 12 14  2  0
 14 15  1  0
 15 16  1  0
 16 17  1  0
 17 18  2  0
 17 19  1  0
 20 19  1  1
 20 21  1  0
 21 22  1  0
 22 23  1  0
 23 24  1  0
 24 25  1  0
 25 26  1  0
 26 27  1  0
 25 20  1  0
 27 22  1  0
M  END
$$$$
