
     RDKit          3D

 29 32  0  0  0  0  0  0  0  0999 V2000
   11.1346   97.0246   61.6228 O   0  0  0  0  0  0  0  0  0  0  0  0
   12.0256   97.2181   60.7452 C   0  0  0  0  0  0  0  0  0  0  0  0
   13.3369   96.8474   61.1434 N   0  0  0  0  0  0  0  0  0  0  0  0
   13.5945   95.7568   62.0255 C   0  0  0  0  0  0  0  0  0  0  0  0
   12.5717   95.3235   62.8477 C   0  0  0  0  0  0  0  0  0  0  0  0
   12.7431   94.2700   63.7342 C   0  0  0  0  0  0  0  0  0  0  0  0
   13.9608   93.6203   63.8148 C   0  0  0  0  0  0  0  0  0  0  0  0
   14.1981   92.2919   64.9236 Cl  0  0  0  0  0  0  0  0  0  0  0  0
   14.9713   94.0629   62.9890 C   0  0  0  0  0  0  0  0  0  0  0  0
   14.7972   95.1226   62.0985 C   0  0  0  0  0  0  0  0  0  0  0  0
   11.6834   97.7639   59.4838 N   0  0  0  0  0  0  0  0  0  0  0  0
   10.5409   98.6507   59.4198 C   0  0  0  0  0  0  0  0  0  0  0  0
   11.0548   99.9820   58.9200 C   0  0  0  0  0  0  0  0  0  0  0  0
   11.7635   99.8764   57.6098 C   0  0  0  0  0  0  0  0  0  0  0  0
   12.7651   98.7802   57.5183 C   0  0  0  0  0  0  0  0  0  0  0  0
   12.3720   97.5140   58.2458 C   0  0  0  0  0  0  0  0  0  0  0  0
   12.8288   98.3815   56.0333 C   0  0  0  0  0  0  0  0  0  0  0  0
   13.6322   99.3887   55.3721 N   0  0  0  0  0  0  0  0  0  0  0  0
   13.0652  100.1961   54.3641 C   0  0  0  0  0  0  0  0  0  0  0  0
   11.8254  100.3650   54.3353 O   0  0  0  0  0  0  0  0  0  0  0  0
   13.8786  100.8419   53.3519 C   0  0  0  0  0  0  0  0  0  0  0  0
   13.3197  101.6874   52.4073 C   0  0  0  0  0  0  0  0  0  0  0  0
   14.0659  102.3192   51.4307 C   0  0  0  0  0  0  0  0  0  0  0  0
   15.4410  102.1080   51.3801 C   0  0  0  0  0  0  0  0  0  0  0  0
   15.9640  101.2642   52.3311 C   0  0  0  0  0  0  0  0  0  0  0  0
   15.2138  100.6654   53.2663 N   0  0  0  0  0  0  0  0  0  0  0  0
   15.0069   99.4933   55.8132 C   0  0  0  0  0  0  0  0  0  0  0  0
   15.0619   98.8686   57.2023 C   0  0  0  0  0  0  0  0  0  0  0  0
   13.9754   99.2331   57.9738 O   0  0  0  0  0  0  0  0  0  0  0  0
  1  2  2  0
  2  3  1  0
  3  4  1  0
  4  5  2  0
  5  6  1  0
  6  7  2  0
  7  8  1  0
  7  9  1  0
  9 10  2  0
  2 11  1  0
 11 12  1  0
 12 13  1  0
 13 14  1  0
 14 15  1  0
 15 16  1  0
 15 17  1  0
 17 18  1  0
 18 19  1  0
 19 20  2  0
 19 21  1  0
 21 22  2  0
 22 23  1  0
 23 24  2  0
 24 25  1  0
 25 26  2  0
 18 27  1  0
 27 28  1  0
 28 29  1  0
 10  4  1  0
 16 11  1  0
 26 21  1  0
 29 15  1  0
M  END
$$$$
