
     RDKit          3D

 20 20  0  0  0  0  0  0  0  0999 V2000
   -5.6530   60.2103   30.6521 Cl  0  0  0  0  0  0  0  0  0  0  0  0
   -5.1194   62.3018   33.5928 N   0  0  0  0  0  0  0  0  0  0  0  0
   -5.3013   62.3176   32.4204 C   0  0  0  0  0  0  0  0  0  0  0  0
   -5.5297   62.3186   31.0043 C   0  0  0  0  0  0  0  0  0  0  0  0
   -5.4430   60.9806   30.3648 C   0  0  0  0  0  0  0  0  0  0  0  0
   -5.7219   61.0500   29.0007 O   0  0  0  0  0  0  0  0  0  0  0  0
   -6.3439   59.9677   30.9893 C   0  0  0  0  0  0  0  0  0  0  0  0
   -7.6731   59.8724   30.6774 C   0  0  0  0  0  0  0  0  0  0  0  0
   -8.4988   58.9473   31.2224 C   0  0  0  0  0  0  0  0  0  0  0  0
   -8.0222   58.0150   32.1582 C   0  0  0  0  0  0  0  0  0  0  0  0
   -9.0356   56.8094   32.8782 Cl  0  0  0  0  0  0  0  0  0  0  0  0
   -6.6698   58.1145   32.4739 C   0  0  0  0  0  0  0  0  0  0  0  0
   -5.8549   59.0612   31.9076 C   0  0  0  0  0  0  0  0  0  0  0  0
   -4.0808   60.3532   30.4430 C   0  0  0  0  0  0  0  0  0  0  0  0
   -3.0729   61.0446   31.0574 C   0  0  0  0  0  0  0  0  0  0  0  0
   -1.8211   60.4165   31.1348 C   0  0  0  0  0  0  0  0  0  0  0  0
   -1.6675   59.1695   30.6059 C   0  0  0  0  0  0  0  0  0  0  0  0
   -0.0832   58.4184   30.7258 Cl  0  0  0  0  0  0  0  0  0  0  0  0
   -2.6936   58.4956   29.9920 C   0  0  0  0  0  0  0  0  0  0  0  0
   -3.9469   59.0793   29.8930 C   0  0  0  0  0  0  0  0  0  0  0  0
  2  3  3  0
  3  4  1  0
  4  5  1  0
  5  6  1  0
  5  7  1  0
  7  8  2  0
  8  9  1  0
  9 10  2  0
 10 11  1  0
 10 12  1  0
 12 13  2  0
  5 14  1  0
 14 15  2  0
 15 16  1  0
 16 17  2  0
 17 18  1  0
 17 19  1  0
 19 20  2  0
 13  7  1  0
 20 14  1  0
M  END
$$$$
