
     RDKit          3D

 33 36  0  0  0  0  0  0  0  0999 V2000
   10.1804   99.3069   56.9605 C   0  0  0  0  0  0  0  0  0  0  0  0
   11.6815   99.1070   57.0288 C   0  0  0  0  0  0  0  0  0  0  0  0
   12.3724  100.2665   57.5216 N   0  0  0  0  0  0  0  0  0  0  0  0
   13.4166  100.9418   56.8467 C   0  0  0  0  0  0  0  0  0  0  0  0
   13.9852  102.0678   57.2949 N   0  0  0  0  0  0  0  0  0  0  0  0
   15.0006  102.6887   56.6473 C   0  0  0  0  0  0  0  0  0  0  0  0
   15.4581  102.1223   55.4753 C   0  0  0  0  0  0  0  0  0  0  0  0
   14.8865  100.9562   54.9892 C   0  0  0  0  0  0  0  0  0  0  0  0
   15.3127  100.3062   53.8165 N   0  0  0  0  0  0  0  0  0  0  0  0
   16.2599  100.7451   52.8664 C   0  0  0  0  0  0  0  0  0  0  0  0
   16.9040  101.8210   52.9723 O   0  0  0  0  0  0  0  0  0  0  0  0
   16.3398   99.7917   51.8306 O   0  0  0  0  0  0  0  0  0  0  0  0
   15.8564   98.6049   52.3709 C   0  0  0  0  0  0  0  0  0  0  0  0
   14.8225   99.0181   53.3510 C   0  0  0  0  0  0  0  0  0  0  0  0
   13.4686   99.2807   52.7423 C   0  0  0  0  0  0  0  0  0  0  0  0
   13.5609  100.0295   51.4329 C   0  0  0  0  0  0  0  0  0  0  0  0
   12.8625   98.0552   52.4790 O   0  0  0  0  0  0  0  0  0  0  0  0
   13.8869  100.4214   55.7046 N   0  0  0  0  0  0  0  0  0  0  0  0
   11.9630   97.9606   57.9343 C   0  0  0  0  0  0  0  0  0  0  0  0
   11.9511   97.9165   59.2675 N   0  0  0  0  0  0  0  0  0  0  0  0
   12.2630   96.6805   59.6935 C   0  0  0  0  0  0  0  0  0  0  0  0
   12.3522   96.1998   61.0784 C   0  0  0  0  0  0  0  0  0  0  0  0
   11.6511   96.7560   62.1166 C   0  0  0  0  0  0  0  0  0  0  0  0
   11.7333   96.2959   63.4005 C   0  0  0  0  0  0  0  0  0  0  0  0
   12.5618   95.2237   63.6508 C   0  0  0  0  0  0  0  0  0  0  0  0
   13.3086   94.6038   62.6397 C   0  0  0  0  0  0  0  0  0  0  0  0
   14.1030   93.5388   63.0051 O   0  0  0  0  0  0  0  0  0  0  0  0
   15.4789   93.6301   63.2465 C   0  0  0  0  0  0  0  0  0  0  0  0
   15.9595   92.3726   63.6167 F   0  0  0  0  0  0  0  0  0  0  0  0
   15.6629   94.5602   64.2723 F   0  0  0  0  0  0  0  0  0  0  0  0
   13.1799   95.1157   61.3730 C   0  0  0  0  0  0  0  0  0  0  0  0
   12.4676   95.9688   58.5700 N   0  0  0  0  0  0  0  0  0  0  0  0
   12.2890   96.7302   57.5329 O   0  0  0  0  0  0  0  0  0  0  0  0
  1  2  1  0
  2  3  1  0
  3  4  1  0
  4  5  2  0
  5  6  1  0
  6  7  2  0
  7  8  1  0
  8  9  1  0
  9 10  1  0
 10 11  2  0
 10 12  1  0
 12 13  1  0
 13 14  1  0
 14 15  1  0
 15 16  1  0
 15 17  1  0
  8 18  2  0
  2 19  1  0
 19 20  2  0
 20 21  1  0
 21 22  1  0
 22 23  2  0
 23 24  1  0
 24 25  2  0
 25 26  1  0
 26 27  1  0
 27 28  1  0
 28 29  1  0
 28 30  1  0
 26 31  2  0
 21 32  2  0
 32 33  1  0
 18  4  1  0
 33 19  1  0
 14  9  1  0
 31 22  1  0
M  END
$$$$
