
     RDKit          3D

 24 26  0  0  0  0  0  0  0  0999 V2000
   10.6737  100.8638   59.7850 C   0  0  0  0  0  0  0  0  0  0  0  0
   11.3334  101.0862   58.4476 C   0  0  0  0  0  0  0  0  0  0  0  0
   11.4876   99.8277   57.7493 N   0  0  0  0  0  0  0  0  0  0  0  0
   10.8519   98.6579   58.2387 C   0  0  0  0  0  0  0  0  0  0  0  0
   11.6982   97.7590   59.0628 C   0  0  0  0  0  0  0  0  0  0  0  0
   12.9407   97.2318   58.6742 C   0  0  0  0  0  0  0  0  0  0  0  0
   13.4037   96.5080   59.6475 O   0  0  0  0  0  0  0  0  0  0  0  0
   12.5628   96.5150   60.6525 C   0  0  0  0  0  0  0  0  0  0  0  0
   12.7329   95.8143   61.9341 C   0  0  0  0  0  0  0  0  0  0  0  0
   13.6514   94.8121   62.1328 C   0  0  0  0  0  0  0  0  0  0  0  0
   13.8039   94.1619   63.3339 C   0  0  0  0  0  0  0  0  0  0  0  0
   13.0019   94.5143   64.4253 C   0  0  0  0  0  0  0  0  0  0  0  0
   13.1826   93.8394   65.6154 O   0  0  0  0  0  0  0  0  0  0  0  0
   12.3387   94.0824   66.7128 C   0  0  0  0  0  0  0  0  0  0  0  0
   12.0745   95.5187   64.2446 C   0  0  0  0  0  0  0  0  0  0  0  0
   11.9535   96.1472   63.0170 C   0  0  0  0  0  0  0  0  0  0  0  0
   11.5129   97.2795   60.3037 N   0  0  0  0  0  0  0  0  0  0  0  0
   12.2957   99.8114   56.5621 C   0  0  0  0  0  0  0  0  0  0  0  0
   12.4174   98.7269   55.7344 C   0  0  0  0  0  0  0  0  0  0  0  0
   13.2157   98.7343   54.5836 C   0  0  0  0  0  0  0  0  0  0  0  0
   13.9050   99.8848   54.2768 C   0  0  0  0  0  0  0  0  0  0  0  0
   13.7668  100.9602   55.1226 C   0  0  0  0  0  0  0  0  0  0  0  0
   14.4423  102.1015   54.8316 F   0  0  0  0  0  0  0  0  0  0  0  0
   12.9926  100.9164   56.2169 N   0  0  0  0  0  0  0  0  0  0  0  0
  1  2  1  0
  2  3  1  0
  3  4  1  0
  4  5  1  0
  5  6  2  0
  6  7  1  0
  7  8  1  0
  8  9  1  0
  9 10  2  0
 10 11  1  0
 11 12  2  0
 12 13  1  0
 13 14  1  0
 12 15  1  0
 15 16  2  0
  8 17  2  0
  3 18  1  0
 18 19  2  0
 19 20  1  0
 20 21  2  0
 21 22  1  0
 22 23  1  0
 22 24  2  0
 17  5  1  0
 24 18  1  0
 16  9  1  0
M  END
$$$$
