
     RDKit          3D

 35 40  0  0  0  0  0  0  0  0999 V2000
   19.5795   58.9181   14.9469 O   0  0  0  0  0  0  0  0  0  0  0  0
   19.0165   58.5644   15.9819 C   0  0  0  0  0  0  0  0  0  0  0  0
   19.8920   58.1310   17.1176 C   0  0  0  0  0  0  0  0  0  0  0  0
   21.2430   57.9531   16.7225 N   0  0  0  0  0  0  0  0  0  0  0  0
   21.8851   59.0850   16.1196 C   0  0  0  0  0  0  0  0  0  0  0  0
   22.9191   58.5682   15.1673 C   0  0  0  0  0  0  0  0  0  0  0  0
   22.7745   57.0842   15.1489 C   0  0  0  0  0  0  0  0  0  0  0  0
   21.4501   56.8299   15.8378 C   0  0  0  0  0  0  0  0  0  0  0  0
   17.6082   58.5761   16.0694 N   0  0  0  0  0  0  0  0  0  0  0  0
   16.6809   58.9929   15.1104 C   0  0  0  0  0  0  0  0  0  0  0  0
   16.3861   60.2791   14.7954 C   0  0  0  0  0  0  0  0  0  0  0  0
   15.4424   60.6423   13.8194 C   0  0  0  0  0  0  0  0  0  0  0  0
   14.7902   59.6310   13.1561 C   0  0  0  0  0  0  0  0  0  0  0  0
   13.8726   59.8918   12.2060 N   0  0  0  0  0  0  0  0  0  0  0  0
   13.2479   58.8876   11.5690 C   0  0  0  0  0  0  0  0  0  0  0  0
   12.3149   58.9236   10.6045 N   0  0  0  0  0  0  0  0  0  0  0  0
   11.9626   57.6779   10.2510 N   0  0  0  0  0  0  0  0  0  0  0  0
   12.6962   56.8246   11.0162 C   0  0  0  0  0  0  0  0  0  0  0  0
   13.5067   57.5634   11.8475 C   0  0  0  0  0  0  0  0  0  0  0  0
   14.4405   57.2579   12.8150 C   0  0  0  0  0  0  0  0  0  0  0  0
   14.7679   55.8819   13.1657 C   0  0  0  0  0  0  0  0  0  0  0  0
   14.3035   55.3675   14.3659 C   0  0  0  0  0  0  0  0  0  0  0  0
   14.5727   54.0681   14.7735 C   0  0  0  0  0  0  0  0  0  0  0  0
   15.3273   53.2367   13.9750 C   0  0  0  0  0  0  0  0  0  0  0  0
   15.6421   51.9319   14.3035 O   0  0  0  0  0  0  0  0  0  0  0  0
   14.7878   51.0514   14.9337 C   0  0  0  0  0  0  0  0  0  0  0  0
   13.4746   51.3919   15.1788 C   0  0  0  0  0  0  0  0  0  0  0  0
   12.6406   50.4798   15.8163 C   0  0  0  0  0  0  0  0  0  0  0  0
   13.0793   49.2398   16.2154 C   0  0  0  0  0  0  0  0  0  0  0  0
   14.3937   48.8907   15.9736 C   0  0  0  0  0  0  0  0  0  0  0  0
   15.2033   49.7920   15.3480 C   0  0  0  0  0  0  0  0  0  0  0  0
   15.7947   53.7478   12.7721 C   0  0  0  0  0  0  0  0  0  0  0  0
   15.5196   55.0435   12.3776 C   0  0  0  0  0  0  0  0  0  0  0  0
   15.0674   58.2992   13.4535 C   0  0  0  0  0  0  0  0  0  0  0  0
   15.9949   57.9824   14.4123 C   0  0  0  0  0  0  0  0  0  0  0  0
  1  2  2  0
  2  3  1  0
  3  4  1  0
  4  5  1  0
  5  6  1  0
  6  7  1  0
  7  8  1  0
  2  9  1  0
  9 10  1  0
 10 11  2  0
 11 12  1  0
 12 13  2  0
 13 14  1  0
 14 15  2  0
 15 16  1  0
 16 17  1  0
 17 18  2  0
 18 19  1  0
 19 20  2  0
 20 21  1  0
 21 22  2  0
 22 23  1  0
 23 24  2  0
 24 25  1  0
 25 26  1  0
 26 27  2  0
 27 28  1  0
 28 29  2  0
 29 30  1  0
 30 31  2  0
 24 32  1  0
 32 33  2  0
 20 34  1  0
 34 35  2  0
  8  4  1  0
 35 10  1  0
 34 13  1  0
 19 15  1  0
 33 21  1  0
 31 26  1  0
M  END
$$$$
