
     RDKit          3D

 27 31  0  0  0  0  0  0  0  0999 V2000
   34.7421   80.0040   51.4295 C   0  0  0  0  0  0  0  0  0  0  0  0
   35.6129   81.0621   52.0442 C   0  0  0  0  0  0  0  0  0  0  0  0
   35.4374   81.4223   53.3651 C   0  0  0  0  0  0  0  0  0  0  0  0
   36.2165   82.3919   53.9687 C   0  0  0  0  0  0  0  0  0  0  0  0
   37.1778   82.9822   53.1813 C   0  0  0  0  0  0  0  0  0  0  0  0
   37.3685   82.6366   51.8597 C   0  0  0  0  0  0  0  0  0  0  0  0
   36.5996   81.6776   51.2650 C   0  0  0  0  0  0  0  0  0  0  0  0
   36.7678   81.2774   49.8725 C   0  0  0  0  0  0  0  0  0  0  0  0
   37.7605   80.5950   49.2853 N   0  0  0  0  0  0  0  0  0  0  0  0
   37.5093   80.4620   47.9578 C   0  0  0  0  0  0  0  0  0  0  0  0
   38.1641   79.8756   46.9142 C   0  0  0  0  0  0  0  0  0  0  0  0
   37.7081   79.8691   45.6232 C   0  0  0  0  0  0  0  0  0  0  0  0
   36.5152   80.4931   45.3684 C   0  0  0  0  0  0  0  0  0  0  0  0
   35.8481   81.0869   46.4233 C   0  0  0  0  0  0  0  0  0  0  0  0
   36.3182   81.0778   47.6817 N   0  0  0  0  0  0  0  0  0  0  0  0
   35.8671   81.5722   48.8454 C   0  0  0  0  0  0  0  0  0  0  0  0
   34.6565   82.2619   49.0528 N   0  0  0  0  0  0  0  0  0  0  0  0
   33.4982   81.8592   48.3115 C   0  0  0  0  0  0  0  0  0  0  0  0
   32.2974   81.7636   49.1875 C   0  0  0  0  0  0  0  0  0  0  0  0
   31.5231   80.6245   49.0943 C   0  0  0  0  0  0  0  0  0  0  0  0
   30.4063   80.5103   49.9077 C   0  0  0  0  0  0  0  0  0  0  0  0
   30.0625   81.5014   50.7945 C   0  0  0  0  0  0  0  0  0  0  0  0
   30.8439   82.6307   50.8771 C   0  0  0  0  0  0  0  0  0  0  0  0
   31.9674   82.7815   50.0809 C   0  0  0  0  0  0  0  0  0  0  0  0
   30.2662   83.4638   51.8524 O   0  0  0  0  0  0  0  0  0  0  0  0
   28.9007   83.0987   51.9074 C   0  0  0  0  0  0  0  0  0  0  0  0
   29.0262   81.6789   51.7248 O   0  0  0  0  0  0  0  0  0  0  0  0
  1  2  1  0
  2  3  2  0
  3  4  1  0
  4  5  2  0
  5  6  1  0
  6  7  2  0
  7  8  1  0
  8  9  1  0
  9 10  2  0
 10 11  1  0
 11 12  2  0
 12 13  1  0
 13 14  2  0
 14 15  1  0
 15 16  1  0
 16 17  1  0
 17 18  1  0
 18 19  1  0
 19 20  2  0
 20 21  1  0
 21 22  2  0
 22 23  1  0
 23 24  2  0
 23 25  1  0
 25 26  1  0
 26 27  1  0
  7  2  1  0
 16  8  2  0
 24 19  1  0
 15 10  1  0
 27 22  1  0
M  END
$$$$
