
     RDKit          3D

 21 22  0  0  0  0  0  0  0  0999 V2000
   15.6555   47.0650   19.9809 C   0  0  0  0  0  0  0  0  0  0  0  0
   16.0313   48.1133   19.0124 C   0  0  0  0  0  0  0  0  0  0  0  0
   17.1897   48.5786   19.0451 O   0  0  0  0  0  0  0  0  0  0  0  0
   15.1227   48.6072   18.0496 N   0  0  0  0  0  0  0  0  0  0  0  0
   15.4964   49.6589   17.1550 C   0  0  0  0  0  0  0  0  0  0  0  0
   14.5959   50.2448   16.2891 C   0  0  0  0  0  0  0  0  0  0  0  0
   14.9862   51.2642   15.4313 C   0  0  0  0  0  0  0  0  0  0  0  0
   16.2854   51.7292   15.4117 C   0  0  0  0  0  0  0  0  0  0  0  0
   16.6253   52.7525   14.5334 O   0  0  0  0  0  0  0  0  0  0  0  0
   15.7826   54.2086   14.4280 S   0  0  0  0  0  6  0  0  0  0  0  0
   16.0859   55.0823   15.6226 O   0  0  0  0  0  0  0  0  0  0  0  0
   14.3157   53.9147   14.4426 O   0  0  0  0  0  0  0  0  0  0  0  0
   16.1588   55.1105   13.0031 C   0  0  0  0  0  0  0  0  0  0  0  0
   15.7789   56.4057   12.6910 C   0  0  0  0  0  0  0  0  0  0  0  0
   14.9559   57.3216   13.5156 C   0  0  0  0  0  0  0  0  0  0  0  0
   16.3232   56.6389   11.4798 N   0  0  0  0  0  0  0  0  0  0  0  0
   16.9699   55.6027   11.0832 O   0  0  0  0  0  0  0  0  0  0  0  0
   16.9251   54.6244   11.9442 C   0  0  0  0  0  0  0  0  0  0  0  0
   17.5530   53.2795   11.8281 C   0  0  0  0  0  0  0  0  0  0  0  0
   17.1883   51.1456   16.2762 C   0  0  0  0  0  0  0  0  0  0  0  0
   16.7932   50.1303   17.1285 C   0  0  0  0  0  0  0  0  0  0  0  0
  1  2  1  0
  2  3  2  0
  2  4  1  0
  4  5  1  0
  5  6  2  0
  6  7  1  0
  7  8  2  0
  8  9  1  0
  9 10  1  0
 10 11  2  0
 10 12  2  0
 10 13  1  0
 13 14  1  0
 14 15  1  0
 14 16  2  0
 16 17  1  0
 17 18  1  0
 18 19  1  0
  8 20  1  0
 20 21  2  0
 21  5  1  0
 18 13  2  0
M  END
$$$$
