
     RDKit          3D

 35 37  0  0  0  0  0  0  0  0999 V2000
   16.0030   58.3425   14.1026 C   0  0  0  0  0  0  0  0  0  0  0  0
   14.9850   58.9596   13.2371 C   0  0  0  0  0  0  0  0  0  0  0  0
   14.6892   60.3271   13.3230 C   0  0  0  0  0  0  0  0  0  0  0  0
   13.7351   60.9209   12.5287 C   0  0  0  0  0  0  0  0  0  0  0  0
   13.4934   62.3200   12.6651 N   0  0  0  0  0  0  0  0  0  0  0  0
   12.0138   62.7295   13.0544 S   0  0  0  0  0  6  0  0  0  0  0  0
   10.9798   62.2905   11.6680 C   0  0  0  0  0  0  0  0  0  0  0  0
   11.4684   61.9371   14.5265 C   0  0  0  0  0  0  0  0  0  0  0  0
   11.9279   64.2442   13.1874 O   0  0  0  0  0  0  0  0  0  0  0  0
   13.0469   60.1714   11.6257 C   0  0  0  0  0  0  0  0  0  0  0  0
   13.3045   58.8276   11.5077 C   0  0  0  0  0  0  0  0  0  0  0  0
   12.6042   58.1326   10.5996 N   0  0  0  0  0  0  0  0  0  0  0  0
   12.8331   56.8312   10.4553 C   0  0  0  0  0  0  0  0  0  0  0  0
   13.7518   56.2415   11.2131 N   0  0  0  0  0  0  0  0  0  0  0  0
   14.5029   56.8852   12.1578 C   0  0  0  0  0  0  0  0  0  0  0  0
   15.4401   56.1219   12.8546 N   0  0  0  0  0  0  0  0  0  0  0  0
   16.1317   55.0761   12.2094 C   0  0  0  0  0  0  0  0  0  0  0  0
   16.8432   55.2339   11.0467 C   0  0  0  0  0  0  0  0  0  0  0  0
   17.5127   54.1922   10.4497 C   0  0  0  0  0  0  0  0  0  0  0  0
   17.5079   52.9225   10.9877 C   0  0  0  0  0  0  0  0  0  0  0  0
   18.1652   51.8887   10.4068 F   0  0  0  0  0  0  0  0  0  0  0  0
   16.7856   52.7468   12.1738 C   0  0  0  0  0  0  0  0  0  0  0  0
   16.1198   53.7864   12.7656 C   0  0  0  0  0  0  0  0  0  0  0  0
   15.4098   53.6218   13.9265 O   0  0  0  0  0  0  0  0  0  0  0  0
   14.9899   52.4601   14.5509 C   0  0  2  0  0  0  0  0  0  0  0  0
   13.4702   52.3320   14.5781 C   0  0  0  0  0  0  0  0  0  0  0  0
   15.5211   52.3395   15.9470 C   0  0  0  0  0  0  0  0  0  0  0  0
   15.4668   53.2621   16.7945 O   0  0  0  0  0  0  0  0  0  0  0  0
   16.1145   51.1013   16.3084 N   0  0  0  0  0  0  0  0  0  0  0  0
   16.3704   50.8451   17.7132 C   0  0  0  0  0  0  0  0  0  0  0  0
   15.1478   50.1794   18.2962 C   0  0  0  0  0  0  0  0  0  0  0  0
   14.9101   49.0410   17.5529 F   0  0  0  0  0  0  0  0  0  0  0  0
   14.0400   51.0158   18.2424 F   0  0  0  0  0  0  0  0  0  0  0  0
   15.4468   49.8153   19.5814 F   0  0  0  0  0  0  0  0  0  0  0  0
   14.2839   58.2242   12.3239 C   0  0  0  0  0  0  0  0  0  0  0  0
  1  2  1  0
  2  3  2  0
  3  4  1  0
  4  5  1  0
  5  6  2  0
  6  7  1  0
  6  8  1  0
  6  9  2  0
  4 10  2  0
 10 11  1  0
 11 12  2  0
 12 13  1  0
 13 14  2  0
 14 15  1  0
 15 16  1  0
 16 17  1  0
 17 18  2  0
 18 19  1  0
 19 20  2  0
 20 21  1  0
 20 22  1  0
 22 23  2  0
 23 24  1  0
 24 25  1  0
 25 26  1  1
 25 27  1  0
 27 28  2  0
 27 29  1  0
 29 30  1  0
 30 31  1  0
 31 32  1  0
 31 33  1  0
 31 34  1  0
 15 35  2  0
 35  2  1  0
 35 11  1  0
 23 17  1  0
M  END
$$$$
