
     RDKit          3D

 32 35  0  0  0  0  0  0  0  0999 V2000
   15.7222  101.5644   50.4043 C   0  0  0  0  0  0  0  0  0  0  0  0
   15.2363  101.0346   51.7142 C   0  0  0  0  0  0  0  0  0  0  0  0
   14.2440  100.1301   51.9977 C   0  0  0  0  0  0  0  0  0  0  0  0
   14.2065   99.9952   53.3514 C   0  0  0  0  0  0  0  0  0  0  0  0
   13.3114   99.1475   54.1505 C   0  0  0  0  0  0  0  0  0  0  0  0
   13.0622   98.0033   53.7216 O   0  0  0  0  0  0  0  0  0  0  0  0
   12.7689   99.6362   55.3639 N   0  0  0  0  0  0  0  0  0  0  0  0
   11.4193   99.4334   55.8286 C   0  0  0  0  0  0  0  0  0  0  0  0
   11.4351   98.4480   57.0302 C   0  0  0  0  0  0  0  0  0  0  0  0
   12.8142   98.4705   57.5486 C   0  0  0  0  0  0  0  0  0  0  0  0
   13.1921   97.7639   58.6760 N   0  0  0  0  0  0  0  0  0  0  0  0
   12.2981   97.1947   59.5773 C   0  0  0  0  0  0  0  0  0  0  0  0
   12.8715   96.1980   60.5260 C   0  0  0  0  0  0  0  0  0  0  0  0
   14.1111   96.3899   61.1093 C   0  0  0  0  0  0  0  0  0  0  0  0
   14.5680   95.4610   62.0054 C   0  0  0  0  0  0  0  0  0  0  0  0
   13.8381   94.3314   62.3554 C   0  0  0  0  0  0  0  0  0  0  0  0
   14.3416   93.3368   63.3295 C   0  0  0  0  0  0  0  0  0  0  0  0
   15.4803   93.7357   63.9740 F   0  0  0  0  0  0  0  0  0  0  0  0
   13.3656   93.1623   64.3219 F   0  0  0  0  0  0  0  0  0  0  0  0
   14.5211   92.0892   62.7692 F   0  0  0  0  0  0  0  0  0  0  0  0
   12.6118   94.1524   61.7711 C   0  0  0  0  0  0  0  0  0  0  0  0
   12.1521   95.0752   60.8766 C   0  0  0  0  0  0  0  0  0  0  0  0
   11.6121   98.2351   60.3814 C   0  0  0  0  0  0  0  0  0  0  0  0
   12.0628   99.5533   60.4549 C   0  0  0  0  0  0  0  0  0  0  0  0
   11.3838  100.4784   61.2142 C   0  0  0  0  0  0  0  0  0  0  0  0
   10.2582  100.1438   61.9154 C   0  0  0  0  0  0  0  0  0  0  0  0
    9.8414   98.8510   61.8248 N   0  0  0  0  0  0  0  0  0  0  0  0
   10.4622   97.9226   61.1060 C   0  0  0  0  0  0  0  0  0  0  0  0
   13.3130   99.9242   57.6532 C   0  0  0  0  0  0  0  0  0  0  0  0
   13.6235  100.4241   56.2414 C   0  0  0  0  0  0  0  0  0  0  0  0
   15.1690  100.8156   53.8437 N   0  0  0  0  0  0  0  0  0  0  0  0
   15.7547  101.4105   52.8598 O   0  0  0  0  0  0  0  0  0  0  0  0
  1  2  1  0
  2  3  2  0
  3  4  1  0
  4  5  1  0
  5  6  2  0
  5  7  1  0
  7  8  1  0
  8  9  1  0
  9 10  1  0
 10 11  1  0
 11 12  1  0
 12 13  1  0
 13 14  2  0
 14 15  1  0
 15 16  2  0
 16 17  1  0
 17 18  1  0
 17 19  1  0
 17 20  1  0
 16 21  1  0
 21 22  2  0
 12 23  1  0
 23 24  2  0
 24 25  1  0
 25 26  2  0
 26 27  1  0
 27 28  2  0
 10 29  1  0
 29 30  1  0
  4 31  2  0
 31 32  1  0
 32  2  1  0
 30  7  1  0
 22 13  1  0
 28 23  1  0
M  END
$$$$
