
     RDKit          3D

 35 39  0  0  0  0  0  0  0  0999 V2000
   13.9988   97.3219   54.1020 C   0  0  0  0  0  0  0  0  0  0  0  0
   14.9953   98.2987   54.7512 C   0  0  0  0  0  0  0  0  0  0  0  0
   16.0367   98.6642   53.7505 C   0  0  0  0  0  0  0  0  0  0  0  0
   15.7749   99.8583   53.0205 N   0  0  0  0  0  0  0  0  0  0  0  0
   15.0412  100.9188   53.6121 C   0  0  0  0  0  0  0  0  0  0  0  0
   15.0389  102.0854   53.1193 O   0  0  0  0  0  0  0  0  0  0  0  0
   14.2705  100.6517   54.8193 C   0  0  0  0  0  0  0  0  0  0  0  0
   13.4854  101.4760   55.6038 C   0  0  0  0  0  0  0  0  0  0  0  0
   13.0185  100.6517   56.6296 C   0  0  0  0  0  0  0  0  0  0  0  0
   12.1895  100.9394   57.7015 C   0  0  0  0  0  0  0  0  0  0  0  0
   11.8750   99.9174   58.5879 C   0  0  0  0  0  0  0  0  0  0  0  0
   12.3511   98.6411   58.4426 C   0  0  0  0  0  0  0  0  0  0  0  0
   12.0239   97.5694   59.3601 C   0  0  0  0  0  0  0  0  0  0  0  0
   12.6843   96.4984   59.3135 O   0  0  0  0  0  0  0  0  0  0  0  0
   10.9955   97.6537   60.3141 N   0  0  0  0  0  0  0  0  0  0  0  0
   10.9567   96.8047   61.4464 C   0  0  0  0  0  0  0  0  0  0  0  0
   11.3533   95.6671   61.7397 N   0  0  0  0  0  0  0  0  0  0  0  0
   11.2207   95.0113   62.8521 C   0  0  0  0  0  0  0  0  0  0  0  0
   11.7630   93.6483   62.9790 C   0  0  0  0  0  0  0  0  0  0  0  0
   10.8772   92.6775   62.9543 O   0  0  0  0  0  0  0  0  0  0  0  0
   13.0549   93.2288   63.1336 N   0  0  0  0  0  0  0  0  0  0  0  0
   13.5876   91.8730   63.1012 C   0  0  0  0  0  0  0  0  0  0  0  0
   13.9141   91.3688   64.4691 C   0  0  0  0  0  0  0  0  0  0  0  0
   12.9656   90.5759   65.2483 C   0  0  0  0  0  0  0  0  0  0  0  0
   11.7791   91.3529   65.5019 F   0  0  0  0  0  0  0  0  0  0  0  0
   13.4185   90.4517   66.5894 F   0  0  0  0  0  0  0  0  0  0  0  0
   12.6468   89.3570   64.7372 F   0  0  0  0  0  0  0  0  0  0  0  0
   14.1427   94.2233   63.3920 C   0  0  0  0  0  0  0  0  0  0  0  0
   15.5016   94.0442   62.9226 C   0  0  0  0  0  0  0  0  0  0  0  0
   14.6270   95.0865   62.3020 C   0  0  0  0  0  0  0  0  0  0  0  0
   10.5265   95.6612   63.9019 C   0  0  0  0  0  0  0  0  0  0  0  0
   10.1443   97.2609   63.0355 S   0  0  0  0  0  0  0  0  0  0  0  0
   13.1847   98.4020   57.3437 C   0  0  0  0  0  0  0  0  0  0  0  0
   13.5161   99.4027   56.4419 C   0  0  0  0  0  0  0  0  0  0  0  0
   14.2847   99.4157   55.3235 N   0  0  0  0  0  0  0  0  0  0  0  0
  1  2  1  0
  2  3  1  0
  3  4  1  0
  4  5  1  0
  5  6  2  0
  5  7  1  0
  7  8  2  0
  8  9  1  0
  9 10  2  0
 10 11  1  0
 11 12  2  0
 12 13  1  0
 13 14  2  0
 13 15  1  0
 15 16  1  0
 16 17  2  0
 17 18  1  0
 18 19  1  0
 19 20  2  0
 19 21  1  0
 21 22  1  0
 22 23  1  0
 23 24  1  0
 24 25  1  0
 24 26  1  0
 24 27  1  0
 21 28  1  0
 28 29  1  0
 29 30  1  0
 18 31  2  0
 31 32  1  0
 12 33  1  0
 33 34  2  0
 34 35  1  0
 35  2  1  0
 35  7  1  0
 34  9  1  0
 32 16  1  0
 30 28  1  0
M  END
$$$$
