
     RDKit          3D

 39 43  0  0  0  0  0  0  0  0999 V2000
   -2.3598   61.7855   33.8202 C   0  0  0  0  0  0  0  0  0  0  0  0
   -3.4983   61.4803   32.8044 C   0  0  1  0  0  0  0  0  0  0  0  0
   -4.1176   62.5793   32.3970 N   0  0  0  0  0  0  0  0  0  0  0  0
   -4.7752   63.7463   31.9644 C   0  0  0  0  0  0  0  0  0  0  0  0
   -4.2598   64.9320   31.6327 N   0  0  0  0  0  0  0  0  0  0  0  0
   -5.0196   65.9002   31.1077 C   0  0  0  0  0  0  0  0  0  0  0  0
   -6.3411   65.7221   30.8901 N   0  0  0  0  0  0  0  0  0  0  0  0
   -6.9155   64.5610   31.2004 C   0  0  0  0  0  0  0  0  0  0  0  0
   -6.1581   63.5586   31.7414 C   0  0  0  0  0  0  0  0  0  0  0  0
   -6.7057   62.3467   32.1011 C   0  0  0  0  0  0  0  0  0  0  0  0
   -8.0898   62.1685   31.8867 C   0  0  0  0  0  0  0  0  0  0  0  0
   -8.6424   60.8980   32.3433 C   0  0  0  0  0  0  0  0  0  0  0  0
   -8.5112   59.7104   31.4763 C   0  0  0  0  0  0  0  0  0  0  0  0
   -9.4270   59.8087   30.2899 C   0  0  0  0  0  0  0  0  0  0  0  0
  -10.7907   59.5497   30.8027 N   0  0  0  0  0  0  0  0  0  0  0  0
  -11.7438   59.0135   29.9293 C   0  0  0  0  0  0  0  0  0  0  0  0
  -12.9540   58.9744   30.4112 O   0  0  0  0  0  0  0  0  0  0  0  0
  -11.4701   58.5312   28.6122 C   0  0  0  0  0  0  0  0  0  0  0  0
  -12.4444   57.8615   27.7194 C   0  0  0  0  0  0  0  0  0  0  0  0
  -11.2222   56.9687   27.2807 C   0  0  0  0  0  0  0  0  0  0  0  0
  -10.3497   57.7136   26.5040 F   0  0  0  0  0  0  0  0  0  0  0  0
  -11.5937   55.7560   26.8183 F   0  0  0  0  0  0  0  0  0  0  0  0
  -10.8091   57.1039   28.7336 C   0  0  0  0  0  0  0  0  0  0  0  0
  -10.9742   59.8731   32.1985 C   0  0  0  0  0  0  0  0  0  0  0  0
  -10.1694   61.0872   32.5575 C   0  0  0  0  0  0  0  0  0  0  0  0
   -8.8149   63.1844   31.3377 C   0  0  0  0  0  0  0  0  0  0  0  0
  -10.0468   63.0254   31.1333 O   0  0  0  0  0  0  0  0  0  0  0  0
   -8.2337   64.3594   31.0024 N   0  0  0  0  0  0  0  0  0  0  0  0
   -8.9640   65.4595   30.4140 C   0  0  0  0  0  0  0  0  0  0  0  0
   -2.8810   60.5942   31.7516 C   0  0  0  0  0  0  0  0  0  0  0  0
   -1.7082   61.0231   31.1407 C   0  0  0  0  0  0  0  0  0  0  0  0
   -1.1321   60.2565   30.1481 C   0  0  0  0  0  0  0  0  0  0  0  0
   -1.6825   59.0662   29.7361 C   0  0  0  0  0  0  0  0  0  0  0  0
   -2.8529   58.6366   30.3433 C   0  0  0  0  0  0  0  0  0  0  0  0
   -3.4880   57.3769   29.9364 C   0  0  0  0  0  0  0  0  0  0  0  0
   -4.5851   57.5835   29.1295 F   0  0  0  0  0  0  0  0  0  0  0  0
   -2.6255   56.5521   29.1988 F   0  0  0  0  0  0  0  0  0  0  0  0
   -3.4153   59.4216   31.3388 C   0  0  0  0  0  0  0  0  0  0  0  0
   -4.5340   58.9366   31.8882 F   0  0  0  0  0  0  0  0  0  0  0  0
  2  1  1  1
  2  3  1  0
  3  4  1  0
  4  5  2  0
  5  6  1  0
  6  7  2  0
  7  8  1  0
  8  9  2  0
  9 10  1  0
 10 11  2  0
 11 12  1  0
 12 13  1  0
 13 14  1  0
 14 15  1  0
 15 16  1  0
 16 17  2  0
 16 18  1  0
 18 19  1  0
 19 20  1  0
 20 21  1  0
 20 22  1  0
 20 23  1  0
 15 24  1  0
 24 25  1  0
 11 26  1  0
 26 27  2  0
 26 28  1  0
 28 29  1  0
  2 30  1  0
 30 31  2  0
 31 32  1  0
 32 33  2  0
 33 34  1  0
 34 35  1  0
 35 36  1  0
 35 37  1  0
 34 38  2  0
 38 39  1  0
  9  4  1  0
 25 12  1  0
 38 30  1  0
 28  8  1  0
 23 18  1  0
M  END
$$$$
