
     RDKit          3D

 29 29  0  0  0  0  0  0  0  0999 V2000
   13.9977   89.8779   64.5368 C   0  0  0  0  0  0  0  0  0  0  0  0
   13.6016   91.1314   65.2769 C   0  0  0  0  0  0  0  0  0  0  0  0
   14.6333   91.3568   66.3610 C   0  0  0  0  0  0  0  0  0  0  0  0
   12.2771   90.8829   65.9635 C   0  0  0  0  0  0  0  0  0  0  0  0
   13.5642   92.3213   64.3909 C   0  0  0  0  0  0  0  0  0  0  0  0
   14.7031   93.0689   64.2439 C   0  0  0  0  0  0  0  0  0  0  0  0
   14.7186   94.1727   63.4397 C   0  0  0  0  0  0  0  0  0  0  0  0
   13.5734   94.5999   62.7229 C   0  0  0  0  0  0  0  0  0  0  0  0
   13.6388   95.6558   61.9714 O   0  0  0  0  0  0  0  0  0  0  0  0
   13.0795   96.5054   61.1513 C   0  0  0  0  0  0  0  0  0  0  0  0
   11.7747   96.5153   60.6848 C   0  0  0  0  0  0  0  0  0  0  0  0
   11.2951   97.4881   59.8024 C   0  0  0  0  0  0  0  0  0  0  0  0
   12.1183   98.4748   59.3683 C   0  0  0  0  0  0  0  0  0  0  0  0
   11.6981   99.5433   58.4361 C   0  0  0  0  0  0  0  0  0  0  0  0
   11.9106   99.1804   56.9895 C   0  0  0  0  0  0  0  0  0  0  0  0
   11.4413  100.3547   56.1570 C   0  0  0  0  0  0  0  0  0  0  0  0
    9.6815  100.6025   56.5368 P   0  0  0  0  0  5  0  0  0  0  0  0
    8.9574  101.1410   55.3223 O   0  0  0  0  0  0  0  0  0  0  0  0
    8.9555   99.1144   56.9424 O   0  0  0  0  0  0  0  0  0  0  0  0
    9.4663  101.6981   57.7964 O   0  0  0  0  0  0  0  0  0  0  0  0
   11.6275  100.0707   54.4309 S   0  0  0  0  0  6  0  0  0  0  0  0
   13.0592   99.9358   54.0440 O   0  0  0  0  0  0  0  0  0  0  0  0
   10.9638  101.2183   53.7057 O   0  0  0  0  0  0  0  0  0  0  0  0
   10.7312   98.6906   54.0395 O   0  0  0  0  0  1  0  0  0  0  0  0
   13.4246   98.5113   59.8013 C   0  0  0  0  0  0  0  0  0  0  0  0
   13.8823   97.5605   60.6598 C   0  0  0  0  0  0  0  0  0  0  0  0
   12.4636   93.8131   62.9089 C   0  0  0  0  0  0  0  0  0  0  0  0
   12.4332   92.6881   63.7234 C   0  0  0  0  0  0  0  0  0  0  0  0
   12.4844   95.9075   61.0139 Na  0  0  0  0  0 15  0  0  0  0  0  0
  1  2  1  0
  2  3  1  0
  2  4  1  0
  2  5  1  0
  5  6  2  0
  6  7  1  0
  7  8  2  0
  8  9  1  0
  9 10  1  0
 10 11  2  0
 11 12  1  0
 12 13  2  0
 13 14  1  0
 14 15  1  0
 15 16  1  0
 16 17  1  0
 17 18  2  0
 17 19  1  0
 17 20  1  0
 16 21  1  0
 21 22  2  0
 21 23  2  0
 21 24  1  0
 13 25  1  0
 25 26  2  0
  8 27  1  0
 27 28  2  0
 28  5  1  0
 26 10  1  0
M  CHG  2  24  -1  29   1
M  END
$$$$
