
     RDKit          3D

 17 17  0  0  0  0  0  0  0  0999 V2000
   11.8759   99.8871   56.6591 C   0  0  0  0  0  0  0  0  0  0  0  0
   11.5879  100.6318   57.9560 C   0  0  0  0  0  0  0  0  0  0  0  0
   10.7288  101.8139   57.6424 C   0  0  0  0  0  0  0  0  0  0  0  0
   10.9361   99.6657   58.8839 C   0  0  0  0  0  0  0  0  0  0  0  0
   10.0703  100.0514   59.7179 O   0  0  0  0  0  0  0  0  0  0  0  0
   11.3376   98.3066   58.7788 N   0  0  0  0  0  0  0  0  0  0  0  0
   10.9995   97.3386   59.7837 C   0  0  0  0  0  0  0  0  0  0  0  0
   12.2224   96.6498   60.3416 C   0  0  0  0  0  0  0  0  0  0  0  0
   11.9303   95.9658   61.5864 N   0  0  0  0  0  0  0  0  0  0  0  0
   12.9133   95.1771   62.2446 C   0  0  0  0  0  0  0  0  0  0  0  0
   14.0466   94.9441   61.7045 O   0  0  0  0  0  0  0  0  0  0  0  0
   12.7086   94.6047   63.5228 N   0  0  0  0  0  0  0  0  0  0  0  0
   13.5942   93.6047   64.0291 C   0  0  0  0  0  0  0  0  0  0  0  0
   12.8694   92.5960   64.9277 C   0  0  0  0  0  0  0  0  0  0  0  0
   13.9146   91.5127   65.0531 C   0  0  0  0  0  0  0  0  0  0  0  0
   14.7672   91.5857   63.8030 C   0  0  0  0  0  0  0  0  0  0  0  0
   14.1250   92.6872   62.9509 C   0  0  0  0  0  0  0  0  0  0  0  0
  1  2  1  0
  2  3  1  0
  2  4  1  0
  4  5  2  0
  4  6  1  0
  6  7  1  0
  7  8  1  0
  8  9  1  0
  9 10  1  0
 10 11  2  0
 10 12  1  0
 12 13  1  0
 13 14  1  0
 14 15  1  0
 15 16  1  0
 16 17  1  0
 17 13  1  0
M  END
$$$$
