
     RDKit          3D

 21 24  0  0  0  0  0  0  0  0999 V2000
   15.8025  100.1556   48.2778 C   0  0  0  0  0  0  0  0  0  0  0  0
   15.1476   99.3065   49.3532 C   0  0  0  0  0  0  0  0  0  0  0  0
   16.0734   98.1523   49.6550 C   0  0  0  0  0  0  0  0  0  0  0  0
   13.8294   98.8285   48.8329 C   0  0  0  0  0  0  0  0  0  0  0  0
   14.9048  100.1832   50.5436 C   0  0  0  0  0  0  0  0  0  0  0  0
   14.1877   99.5102   51.6663 C   0  0  0  0  0  0  0  0  0  0  0  0
   14.6704  100.2586   52.8532 C   0  0  0  0  0  0  0  0  0  0  0  0
   14.1744  100.4163   54.1457 C   0  0  0  0  0  0  0  0  0  0  0  0
   12.9808   99.7370   54.4820 N   0  0  0  0  0  0  0  0  0  0  0  0
   12.1318   99.9372   55.5911 C   0  0  0  0  0  0  0  0  0  0  0  0
   10.9124   99.0291   55.6672 C   0  0  0  0  0  0  0  0  0  0  0  0
   10.8156   98.6861   57.1334 C   0  0  0  0  0  0  0  0  0  0  0  0
   11.9241   97.7415   57.4953 C   0  0  0  0  0  0  0  0  0  0  0  0
   13.1881   98.5878   57.3683 C   0  0  0  0  0  0  0  0  0  0  0  0
   12.7134   99.9238   56.9469 C   0  0  0  0  0  0  0  0  0  0  0  0
   11.3830   99.9736   57.7619 C   0  0  0  0  0  0  0  0  0  0  0  0
   14.8905  101.1867   54.9835 N   0  0  0  0  0  0  0  0  0  0  0  0
   16.0325  101.8101   54.6803 C   0  0  0  0  0  0  0  0  0  0  0  0
   16.4980  101.6440   53.4185 N   0  0  0  0  0  0  0  0  0  0  0  0
   15.8474  100.8906   52.5121 C   0  0  0  0  0  0  0  0  0  0  0  0
   16.1289  100.5775   51.1728 O   0  0  0  0  0  0  0  0  0  0  0  0
  1  2  1  0
  2  3  1  0
  2  4  1  0
  2  5  1  0
  5  6  1  0
  6  7  1  0
  7  8  2  0
  8  9  1  0
  9 10  1  0
 10 11  1  0
 11 12  1  0
 12 13  1  0
 13 14  1  0
 14 15  1  0
 15 16  1  0
  8 17  1  0
 17 18  2  0
 18 19  1  0
 19 20  2  0
 20 21  1  0
 21  5  1  0
 20  7  1  0
 15 10  1  0
 16 12  1  0
M  END
$$$$
