
     RDKit          3D

 21 23  0  0  0  0  0  0  0  0999 V2000
   10.8951   61.3266   12.1134 C   0  0  0  0  0  0  0  0  0  0  0  0
   11.8770   60.2326   12.2858 C   0  0  0  0  0  0  0  0  0  0  0  0
   11.6302   58.9426   11.8646 C   0  0  0  0  0  0  0  0  0  0  0  0
   12.5553   57.9380   12.0337 C   0  0  0  0  0  0  0  0  0  0  0  0
   13.7557   58.2193   12.6360 C   0  0  0  0  0  0  0  0  0  0  0  0
   14.7380   57.2851   12.8468 C   0  0  0  0  0  0  0  0  0  0  0  0
   14.5741   55.9550   12.4328 N   0  0  0  0  0  0  0  0  0  0  0  0
   15.4880   54.8876   12.5662 C   0  0  0  0  0  0  0  0  0  0  0  0
   15.2922   53.9593   13.6006 C   0  0  0  0  0  0  0  0  0  0  0  0
   16.0985   52.8871   13.8347 C   0  0  0  0  0  0  0  0  0  0  0  0
   15.8187   51.9607   14.9427 C   0  0  0  0  0  0  0  0  0  0  0  0
   15.5842   51.2519   15.7926 N   0  0  0  0  0  0  0  0  0  0  0  0
   17.1814   52.6905   13.0077 C   0  0  0  0  0  0  0  0  0  0  0  0
   17.4307   53.5737   11.9647 C   0  0  0  0  0  0  0  0  0  0  0  0
   16.5763   54.6628   11.7597 C   0  0  0  0  0  0  0  0  0  0  0  0
   16.8886   55.5663   10.6272 C   0  0  0  0  0  0  0  0  0  0  0  0
   15.8843   57.6493   13.4438 N   0  0  0  0  0  0  0  0  0  0  0  0
   16.1480   58.8995   13.8626 C   0  0  0  0  0  0  0  0  0  0  0  0
   15.1777   59.7987   13.6489 N   0  0  0  0  0  0  0  0  0  0  0  0
   14.0046   59.5177   13.0601 C   0  0  0  0  0  0  0  0  0  0  0  0
   13.0663   60.4763   12.8738 N   0  0  0  0  0  0  0  0  0  0  0  0
  1  2  1  0
  2  3  2  0
  3  4  1  0
  4  5  2  0
  5  6  1  0
  6  7  1  0
  7  8  1  0
  8  9  2  0
  9 10  1  0
 10 11  1  0
 11 12  3  0
 10 13  2  0
 13 14  1  0
 14 15  2  0
 15 16  1  0
  6 17  2  0
 17 18  1  0
 18 19  2  0
 19 20  1  0
 20 21  2  0
 21  2  1  0
 20  5  1  0
 15  8  1  0
M  END
$$$$
