
     RDKit          3D

 18 19  0  0  0  0  0  0  0  0999 V2000
   11.2767   48.5733   18.4689 C   0  0  0  0  0  0  0  0  0  0  0  0
   12.3503   47.9951   17.7584 O   0  0  0  0  0  0  0  0  0  0  0  0
   13.4918   48.7613   17.5196 C   0  0  0  0  0  0  0  0  0  0  0  0
   13.8364   49.8198   18.3289 C   0  0  0  0  0  0  0  0  0  0  0  0
   14.9615   50.5845   18.1037 C   0  0  0  0  0  0  0  0  0  0  0  0
   15.7934   50.2973   17.0289 C   0  0  0  0  0  0  0  0  0  0  0  0
   16.9939   51.1050   16.7798 C   0  0  0  0  0  0  0  0  0  0  0  0
   18.2142   50.4142   17.1555 N   0  0  0  0  0  0  0  0  0  0  0  0
   17.1251   51.5442   15.3533 C   0  0  0  0  0  0  0  0  0  0  0  0
   18.4772   51.6170   15.0435 F   0  0  0  0  0  0  0  0  0  0  0  0
   16.4234   52.7848   15.0156 C   0  0  0  0  0  0  0  0  0  0  0  0
   15.9429   53.4563   15.9741 O   0  0  0  0  0  0  0  0  0  0  0  0
   16.2588   53.2632   13.7035 N   0  0  0  0  0  0  0  0  0  0  0  0
   15.6495   54.3318   12.9367 C   0  0  0  0  0  0  0  0  0  0  0  0
   16.8243   54.2110   11.9710 C   0  0  0  0  0  0  0  0  0  0  0  0
   16.7387   52.7493   12.4016 C   0  0  0  0  0  0  0  0  0  0  0  0
   15.4385   49.2355   16.2258 C   0  0  0  0  0  0  0  0  0  0  0  0
   14.3140   48.4718   16.4514 C   0  0  0  0  0  0  0  0  0  0  0  0
  1  2  1  0
  2  3  1  0
  3  4  2  0
  4  5  1  0
  5  6  2  0
  6  7  1  0
  7  8  1  0
  7  9  1  0
  9 10  1  0
  9 11  1  0
 11 12  2  0
 11 13  1  0
 13 14  1  0
 14 15  1  0
 15 16  1  0
  6 17  1  0
 17 18  2  0
 18  3  1  0
 16 13  1  0
M  END
$$$$
