
     RDKit          3D

 21 22  0  0  0  0  0  0  0  0999 V2000
   13.8851   47.0091   20.8110 C   0  0  0  0  0  0  0  0  0  0  0  0
   15.1068   47.1675   19.9310 C   0  0  0  0  0  0  0  0  0  0  0  0
   16.3257   46.6715   20.6794 C   0  0  0  0  0  0  0  0  0  0  0  0
   15.2633   48.5061   19.4559 N   0  0  0  0  0  0  0  0  0  0  0  0
   16.1516   48.5764   18.3112 C   0  0  0  0  0  0  0  0  0  0  0  0
   16.3018   50.0319   17.8819 C   0  0  0  0  0  0  0  0  0  0  0  0
   17.2596   50.6779   18.6643 O   0  0  0  0  0  0  0  0  0  0  0  0
   16.6797   50.0876   16.4405 C   0  0  0  0  0  0  0  0  0  0  0  0
   17.3821   51.1975   16.0345 O   0  0  0  0  0  0  0  0  0  0  0  0
   17.5177   51.2451   14.6773 C   0  0  0  0  0  0  0  0  0  0  0  0
   18.9925   51.4739   14.2759 C   0  0  0  0  0  0  0  0  0  0  0  0
   16.7569   52.3347   13.9821 C   0  0  0  0  0  0  0  0  0  0  0  0
   16.7041   53.5399   14.9075 C   0  0  0  0  0  0  0  0  0  0  0  0
   15.8855   54.5573   14.3318 O   0  0  0  0  0  0  0  0  0  0  0  0
   16.0219   54.7732   12.9680 C   0  0  0  0  0  0  0  0  0  0  0  0
   15.4085   55.8944   12.4340 C   0  0  0  0  0  0  0  0  0  0  0  0
   15.5449   56.1097   11.0716 C   0  0  0  0  0  0  0  0  0  0  0  0
   16.2606   55.2493   10.2672 C   0  0  0  0  0  0  0  0  0  0  0  0
   16.8615   54.1403   10.8242 C   0  0  0  0  0  0  0  0  0  0  0  0
   16.7528   53.8857   12.1747 C   0  0  0  0  0  0  0  0  0  0  0  0
   17.3417   52.7811   12.7769 O   0  0  0  0  0  0  0  0  0  0  0  0
  1  2  1  0
  2  3  1  0
  2  4  1  0
  4  5  1  0
  5  6  1  0
  6  7  1  0
  6  8  1  0
  8  9  1  0
  9 10  1  0
 10 11  1  0
 10 12  1  0
 12 13  1  0
 13 14  1  0
 14 15  1  0
 15 16  2  0
 16 17  1  0
 17 18  2  0
 18 19  1  0
 19 20  2  0
 20 21  1  0
 21 12  1  0
 20 15  1  0
M  END
$$$$
