
     RDKit          3D

 21 22  0  0  0  0  0  0  0  0999 V2000
  -12.3536   60.9149   30.8137 C   0  0  0  0  0  0  0  0  0  0  0  0
  -10.9592   60.7711   30.9816 O   0  0  0  0  0  0  0  0  0  0  0  0
  -10.3854   59.5265   31.1251 C   0  0  0  0  0  0  0  0  0  0  0  0
  -11.0958   58.3591   31.0519 C   0  0  0  0  0  0  0  0  0  0  0  0
  -10.5052   57.1172   31.1994 C   0  0  0  0  0  0  0  0  0  0  0  0
   -9.1404   57.0219   31.4299 C   0  0  0  0  0  0  0  0  0  0  0  0
   -8.4235   58.1959   31.5020 C   0  0  0  0  0  0  0  0  0  0  0  0
   -9.0078   59.4443   31.3564 C   0  0  0  0  0  0  0  0  0  0  0  0
   -8.2545   60.7118   31.4107 C   0  0  0  0  0  0  0  0  0  0  0  0
   -7.1399   60.7812   30.5038 N   0  0  0  0  0  0  0  0  0  0  0  0
   -5.8259   60.4086   30.8697 C   0  0  0  0  0  0  0  0  0  0  0  0
   -5.6110   60.1381   32.0783 O   0  0  0  0  0  0  0  0  0  0  0  0
   -4.7874   60.3646   29.8154 C   0  0  0  0  0  0  0  0  0  0  0  0
   -3.4526   60.0208   30.3576 C   0  0  0  0  0  0  0  0  0  0  0  0
   -3.0406   60.4961   31.5806 C   0  0  0  0  0  0  0  0  0  0  0  0
   -1.7830   60.1904   32.0976 C   0  0  0  0  0  0  0  0  0  0  0  0
   -0.9070   59.3937   31.3858 C   0  0  0  0  0  0  0  0  0  0  0  0
    0.3181   59.0877   31.8814 F   0  0  0  0  0  0  0  0  0  0  0  0
   -1.3222   58.9217   30.1619 C   0  0  0  0  0  0  0  0  0  0  0  0
   -0.4617   58.1421   29.4634 F   0  0  0  0  0  0  0  0  0  0  0  0
   -2.5641   59.2236   29.6548 C   0  0  0  0  0  0  0  0  0  0  0  0
  1  2  1  0
  2  3  1  0
  3  4  2  0
  4  5  1  0
  5  6  2  0
  6  7  1  0
  7  8  2  0
  8  9  1  0
  9 10  1  0
 10 11  1  0
 11 12  2  0
 11 13  1  0
 13 14  1  0
 14 15  2  0
 15 16  1  0
 16 17  2  0
 17 18  1  0
 17 19  1  0
 19 20  1  0
 19 21  2  0
  8  3  1  0
 21 14  1  0
M  END
$$$$
