
     RDKit          3D

 31 34  0  0  0  0  0  0  0  0999 V2000
   16.5765  101.5929   55.0943 C   0  0  0  0  0  0  0  0  0  0  0  0
   15.6290  100.6550   54.6556 O   0  0  0  0  0  0  0  0  0  0  0  0
   14.5041  101.4035   54.1758 C   0  0  0  0  0  0  0  0  0  0  0  0
   13.3283  101.1587   54.9677 C   0  0  0  0  0  0  0  0  0  0  0  0
   13.1169  100.3545   56.0022 C   0  0  0  0  0  0  0  0  0  0  0  0
   12.9526   99.7159   56.8165 C   0  0  0  0  0  0  0  0  0  0  0  0
   12.7264   98.8238   57.9340 C   0  0  0  0  0  0  0  0  0  0  0  0
   12.5516   98.1628   58.7709 C   0  0  0  0  0  0  0  0  0  0  0  0
   12.2606   97.0719   60.1510 C   0  0  0  0  0  0  0  0  0  0  0  0
   12.0932   96.4649   60.9409 C   0  0  0  0  0  0  0  0  0  0  0  0
   11.9372   95.9399   61.6443 C   0  0  0  0  0  0  0  0  0  0  0  0
   11.7007   95.1322   62.7359 C   0  0  0  0  0  0  0  0  0  0  0  0
   11.4423   94.3063   63.8902 O   0  0  0  0  0  0  0  0  0  0  0  0
   12.1896   93.1386   63.8782 C   0  0  0  0  0  0  0  0  0  0  0  0
   12.2026   91.9979   64.7829 C   0  0  0  0  0  0  0  0  0  0  0  0
   13.4080   91.1223   64.7197 C   0  0  0  0  0  0  0  0  0  0  0  0
   13.8678   90.8593   63.3220 C   0  0  0  0  0  0  0  0  0  0  0  0
   14.0585   92.1135   62.5250 C   0  0  0  0  0  0  0  0  0  0  0  0
   15.1364   92.9756   63.1636 C   0  0  0  0  0  0  0  0  0  0  0  0
   14.6471   93.1837   64.6609 C   0  0  0  0  0  0  0  0  0  0  0  0
   14.5147   91.9078   65.3877 C   0  0  0  0  0  0  0  0  0  0  0  0
   13.4639   93.9960   64.4891 C   0  0  0  0  0  0  0  0  0  0  0  0
   12.6942   92.7881   62.4708 C   0  0  0  0  0  0  0  0  0  0  0  0
   12.4519  100.3080   53.9110 O   0  0  0  0  0  0  0  0  0  0  0  0
   13.3279   99.1968   53.8593 C   0  0  0  0  0  0  0  0  0  0  0  0
   12.6486   97.9055   53.6740 C   0  0  0  0  0  0  0  0  0  0  0  0
   11.6514   97.5546   54.5554 O   0  0  0  0  0  0  0  0  0  0  0  0
   14.1984   99.5391   52.6343 C   0  0  0  0  0  0  0  0  0  0  0  0
   13.5560   99.1887   51.5536 O   0  0  0  0  0  0  0  0  0  0  0  0
   14.3069  101.0752   52.7218 C   0  0  0  0  0  0  0  0  0  0  0  0
   15.4228  101.5463   51.9863 O   0  0  0  0  0  0  0  0  0  0  0  0
  1  2  1  0
  2  3  1  0
  3  4  1  0
  4  5  1  0
  5  6  3  0
  6  7  1  0
  7  8  3  0
  8  9  1  0
  9 10  3  0
 10 11  1  0
 11 12  3  0
 12 13  1  0
 13 14  1  0
 14 15  1  0
 15 16  1  0
 16 17  1  0
 17 18  1  0
 18 19  1  0
 19 20  1  0
 20 21  1  0
 20 22  1  0
 18 23  1  0
  4 24  1  0
 24 25  1  0
 25 26  1  0
 26 27  1  0
 25 28  1  0
 28 29  1  0
 28 30  1  0
 30 31  1  0
 30  3  1  0
 22 14  1  0
 23 14  1  0
 21 16  1  0
M  END
$$$$
