
     RDKit          3D

 31 36  0  0  0  0  0  0  0  0999 V2000
    8.9473   99.4241   59.1705 O   0  0  0  0  0  0  0  0  0  0  0  0
   10.0585   99.2587   59.7252 C   0  0  0  0  0  0  0  0  0  0  0  0
   11.0691  100.1874   59.4868 N   0  0  0  0  0  0  0  0  0  0  0  0
   11.0339  101.4504   58.8473 C   0  0  0  0  0  0  0  0  0  0  0  0
   11.6881  101.5287   57.5359 C   0  0  1  0  0  0  0  0  0  0  0  0
   11.4257  102.6510   56.6167 C   0  0  0  0  0  0  0  0  0  0  0  0
   11.9104  102.2132   55.3136 O   0  0  0  0  0  0  0  0  0  0  0  0
   13.0797  101.4334   55.2306 C   0  0  0  0  0  0  0  0  0  0  0  0
   13.5663  101.0468   53.9916 C   0  0  0  0  0  0  0  0  0  0  0  0
   14.7092  100.2838   53.8961 C   0  0  0  0  0  0  0  0  0  0  0  0
   15.4035   99.8811   55.0179 C   0  0  0  0  0  0  0  0  0  0  0  0
   14.8883  100.2856   56.2378 C   0  0  0  0  0  0  0  0  0  0  0  0
   13.7535  101.0447   56.3606 C   0  0  0  0  0  0  0  0  0  0  0  0
   13.2350  101.4566   57.6818 C   0  0  0  0  0  0  0  0  0  0  0  0
   10.2647   98.1173   60.5926 C   0  0  0  0  0  0  0  0  0  0  0  0
    9.4642   97.6963   61.6061 C   0  0  0  0  0  0  0  0  0  0  0  0
    9.6957   96.6033   62.4104 C   0  0  0  0  0  0  0  0  0  0  0  0
   10.8311   95.8269   62.2140 C   0  0  0  0  0  0  0  0  0  0  0  0
   11.2292   94.7650   62.8585 N   0  0  0  0  0  0  0  0  0  0  0  0
   12.1795   94.0973   62.7103 C   0  0  0  0  0  0  0  0  0  0  0  0
   12.8926   92.9433   63.1890 N   0  0  0  0  0  0  0  0  0  0  0  0
   14.0849   92.4589   62.5281 C   0  0  0  0  0  0  0  0  0  0  0  0
   14.4488   91.1831   63.2703 C   0  0  2  0  0  0  0  0  0  0  0  0
   13.0361   90.7219   63.6754 C   0  0  0  0  0  0  0  0  0  0  0  0
   12.6487   92.0776   64.2997 C   0  0  1  0  0  0  0  0  0  0  0  0
   13.7952   92.2291   65.2751 C   0  0  0  0  0  0  0  0  0  0  0  0
   15.0050   91.5738   64.5963 C   0  0  1  0  0  0  0  0  0  0  0  0
   15.2683   90.3992   65.3270 O   0  0  0  0  0  0  0  0  0  0  0  0
   12.9698   95.0290   61.2436 S   0  0  0  0  0  0  0  0  0  0  0  0
   11.6635   96.2340   61.1879 C   0  0  0  0  0  0  0  0  0  0  0  0
   11.4183   97.3377   60.3847 C   0  0  0  0  0  0  0  0  0  0  0  0
  1  2  2  0
  2  3  1  0
  3  4  1  0
  5  4  1  1
  5  6  1  0
  6  7  1  0
  7  8  1  0
  8  9  2  0
  9 10  1  0
 10 11  2  0
 11 12  1  0
 12 13  2  0
 13 14  1  0
  2 15  1  0
 15 16  2  0
 16 17  1  0
 17 18  2  0
 18 19  1  0
 19 20  2  0
 20 21  1  0
 21 22  1  0
 23 22  1  6
 23 24  1  0
 24 25  1  0
 25 26  1  1
 26 27  1  0
 27 28  1  1
 20 29  1  0
 29 30  1  0
 30 31  2  0
 14  5  1  0
 31 15  1  0
 13  8  1  0
 30 18  1  0
 25 21  1  0
 27 23  1  0
M  END
$$$$
