
     RDKit          3D

 31 34  0  0  0  0  0  0  0  0999 V2000
   18.7719   54.3518   14.3790 O   0  0  0  0  0  0  0  0  0  0  0  0
   17.5476   54.1402   14.2708 C   0  0  0  0  0  0  0  0  0  0  0  0
   16.7278   54.9815   13.4049 C   0  0  0  0  0  0  0  0  0  0  0  0
   17.2032   56.2558   13.1459 O   0  0  0  0  0  0  0  0  0  0  0  0
   16.5492   57.3513   12.6771 C   0  0  0  0  0  0  0  0  0  0  0  0
   15.7582   57.1823   11.5566 C   0  0  0  0  0  0  0  0  0  0  0  0
   15.0476   58.2018   10.9828 C   0  0  0  0  0  0  0  0  0  0  0  0
   15.1144   59.4615   11.5376 C   0  0  0  0  0  0  0  0  0  0  0  0
   14.3453   60.6019   10.9306 C   0  0  0  0  0  0  0  0  0  0  0  0
   12.9589   60.3824   11.2632 N   0  0  0  0  0  0  0  0  0  0  0  0
   12.4247   60.2646   12.4845 C   0  0  0  0  0  0  0  0  0  0  0  0
   11.0718   60.0649   12.3333 C   0  0  0  0  0  0  0  0  0  0  0  0
   10.8231   60.0674   11.0165 N   0  0  0  0  0  0  0  0  0  0  0  0
   11.9735   60.2609   10.3685 C   0  0  0  0  0  0  0  0  0  0  0  0
   15.8988   59.6246   12.6468 C   0  0  0  0  0  0  0  0  0  0  0  0
   16.6184   58.6067   13.2331 C   0  0  0  0  0  0  0  0  0  0  0  0
   16.9538   53.0757   14.9947 N   0  0  0  0  0  0  0  0  0  0  0  0
   15.5809   52.6946   14.7335 C   0  0  0  0  0  0  0  0  0  0  0  0
   15.0081   52.1567   16.0323 C   0  0  0  0  0  0  0  0  0  0  0  0
   15.7484   50.9487   16.3306 N   0  0  0  0  0  0  0  0  0  0  0  0
   15.0779   49.8274   16.8694 C   0  0  0  0  0  0  0  0  0  0  0  0
   13.8635   49.6647   16.6126 O   0  0  0  0  0  0  0  0  0  0  0  0
   15.7858   48.8633   17.7178 C   0  0  0  0  0  0  0  0  0  0  0  0
   14.9855   48.3754   18.8446 C   0  0  0  0  0  0  0  0  0  0  0  0
   13.7385   48.9474   19.1205 C   0  0  0  0  0  0  0  0  0  0  0  0
   12.9817   48.5039   20.1661 C   0  0  0  0  0  0  0  0  0  0  0  0
   13.3964   47.4839   20.9957 C   0  0  0  0  0  0  0  0  0  0  0  0
   14.6352   46.9207   20.7159 C   0  0  0  0  0  0  0  0  0  0  0  0
   15.4127   47.3514   19.6694 C   0  0  0  0  0  0  0  0  0  0  0  0
   17.1671   50.9223   16.0664 C   0  0  0  0  0  0  0  0  0  0  0  0
   17.6970   52.3393   16.0127 C   0  0  0  0  0  0  0  0  0  0  0  0
  1  2  2  0
  2  3  1  0
  3  4  1  0
  4  5  1  0
  5  6  2  0
  6  7  1  0
  7  8  2  0
  8  9  1  0
  9 10  1  0
 10 11  1  0
 11 12  2  0
 12 13  1  0
 13 14  2  0
  8 15  1  0
 15 16  2  0
  2 17  1  0
 17 18  1  0
 18 19  1  0
 19 20  1  0
 20 21  1  0
 21 22  2  0
 21 23  1  0
 23 24  1  0
 24 25  2  0
 25 26  1  0
 26 27  2  0
 27 28  1  0
 28 29  2  0
 20 30  1  0
 30 31  1  0
 16  5  1  0
 31 17  1  0
 14 10  1  0
 29 24  1  0
M  END
$$$$
