
     RDKit          3D

 19 20  0  0  0  0  0  0  0  0999 V2000
   18.8767   48.4132   18.9206 C   0  0  0  0  0  0  0  0  0  0  0  0
   17.6668   47.7724   19.2752 O   0  0  0  0  0  0  0  0  0  0  0  0
   16.4569   48.3500   18.9180 C   0  0  0  0  0  0  0  0  0  0  0  0
   15.2777   48.0636   19.6083 C   0  0  0  0  0  0  0  0  0  0  0  0
   14.0764   48.6334   19.2582 C   0  0  0  0  0  0  0  0  0  0  0  0
   14.0588   49.5105   18.1910 C   0  0  0  0  0  0  0  0  0  0  0  0
   15.2293   49.7881   17.5139 C   0  0  0  0  0  0  0  0  0  0  0  0
   15.1325   50.7015   16.4252 N   0  0  0  0  0  0  0  0  0  0  0  0
   16.2666   51.3964   15.9039 C   0  0  0  0  0  0  0  0  0  0  0  0
   17.4023   50.9732   16.1879 O   0  0  0  0  0  0  0  0  0  0  0  0
   16.1574   52.5396   15.0825 N   0  0  0  0  0  0  0  0  0  0  0  0
   16.6100   52.5276   13.6810 C   0  0  0  0  0  0  0  0  0  0  0  0
   16.3017   53.8121   13.0200 C   0  0  0  0  0  0  0  0  0  0  0  0
   15.2472   54.6028   13.4474 C   0  0  0  0  0  0  0  0  0  0  0  0
   14.9664   55.8145   12.8143 C   0  0  0  0  0  0  0  0  0  0  0  0
   15.7474   56.2276   11.7525 C   0  0  0  0  0  0  0  0  0  0  0  0
   16.8121   55.4466   11.3080 C   0  0  0  0  0  0  0  0  0  0  0  0
   17.0695   54.2473   11.9545 C   0  0  0  0  0  0  0  0  0  0  0  0
   16.4312   49.2356   17.8427 C   0  0  0  0  0  0  0  0  0  0  0  0
  1  2  1  0
  2  3  1  0
  3  4  2  0
  4  5  1  0
  5  6  2  0
  6  7  1  0
  7  8  1  0
  8  9  1  0
  9 10  2  0
  9 11  1  0
 11 12  1  0
 12 13  1  0
 13 14  2  0
 14 15  1  0
 15 16  2  0
 16 17  1  0
 17 18  2  0
  7 19  2  0
 19  3  1  0
 18 13  1  0
M  END
$$$$
