
     RDKit          3D

 25 25  0  0  0  0  0  0  0  0999 V2000
   15.5412   95.6377   63.0462 C   0  0  0  0  0  0  0  0  0  0  0  0
   14.1104   95.4317   62.6207 N   0  0  0  0  0  0  0  0  0  0  0  0
   13.3444   95.8677   63.7491 C   0  0  0  0  0  0  0  0  0  0  0  0
   11.9450   95.3309   63.7872 C   0  0  0  0  0  0  0  0  0  0  0  0
   11.9734   93.8119   63.8565 C   0  0  0  0  0  0  0  0  0  0  0  0
   12.6949   93.3878   65.1111 C   0  0  0  0  0  0  0  0  0  0  0  0
   12.6948   91.8737   65.2364 C   0  0  0  0  0  0  0  0  0  0  0  0
   11.3167   91.4268   65.2940 N   0  0  0  0  0  0  0  0  0  0  0  0
   10.6675   91.8350   66.5259 C   0  0  0  0  0  0  0  0  0  0  0  0
    9.2035   92.1092   66.1693 C   0  0  0  0  0  0  0  0  0  0  0  0
    8.3787   90.9345   66.6464 C   0  0  0  0  0  0  0  0  0  0  0  0
    9.0503   89.6184   66.3526 C   0  0  0  0  0  0  0  0  0  0  0  0
    9.7863   89.6100   65.0509 C   0  0  0  0  0  0  0  0  0  0  0  0
   11.2484   89.9714   65.1645 C   0  0  0  0  0  0  0  0  0  0  0  0
   13.9972   96.3200   61.4961 C   0  0  0  0  0  0  0  0  0  0  0  0
   12.6507   96.5272   60.9101 C   0  0  0  0  0  0  0  0  0  0  0  0
   12.8164   97.4496   59.6863 C   0  0  0  0  0  0  0  0  0  0  0  0
   11.5527   97.7160   59.0604 N   0  0  0  0  0  0  0  0  0  0  0  0
   11.8287   98.5849   57.9072 C   0  0  0  0  0  0  0  0  0  0  0  0
   12.2871   99.8990   58.4994 C   0  0  1  0  0  0  0  0  0  0  0  0
   11.9686  100.9917   57.6995 O   0  0  0  0  0  0  0  0  0  0  0  0
   11.5024   99.9250   59.8063 C   0  0  1  0  0  0  0  0  0  0  0  0
   10.5946  100.9774   59.7297 O   0  0  0  0  0  0  0  0  0  0  0  0
   10.7287   98.6314   59.8488 C   0  0  0  0  0  0  0  0  0  0  0  0
   12.0167   95.4431   62.5747 Cl  0  0  0  0  0  0  0  0  0  0  0  0
  1  2  1  0
  2  3  1  0
  3  4  1  0
  4  5  1  0
  5  6  1  0
  6  7  1  0
  7  8  1  0
  8  9  1  0
  9 10  1  0
 10 11  1  0
 11 12  1  0
 12 13  1  0
 13 14  1  0
  2 15  1  0
 15 16  1  0
 16 17  1  0
 17 18  1  0
 18 19  1  0
 19 20  1  0
 20 21  1  6
 20 22  1  0
 22 23  1  6
 22 24  1  0
 14  8  1  0
 24 18  1  0
M  END
$$$$
