
     RDKit          3D

 28 30  0  0  0  0  0  0  0  0999 V2000
   16.5812   50.0458   17.3801 C   0  0  0  0  0  0  0  0  0  0  0  0
   15.5907   50.3875   16.4412 O   0  0  0  0  0  0  0  0  0  0  0  0
   15.7589   51.5448   15.6810 C   0  0  0  0  0  0  0  0  0  0  0  0
   16.9812   51.8294   15.0978 C   0  0  0  0  0  0  0  0  0  0  0  0
   17.1375   52.9709   14.3542 C   0  0  0  0  0  0  0  0  0  0  0  0
   16.0045   53.8175   14.2242 C   0  0  0  0  0  0  0  0  0  0  0  0
   14.7985   53.5510   14.7840 C   0  0  0  0  0  0  0  0  0  0  0  0
   13.7333   54.4081   14.5951 O   0  0  0  0  0  0  0  0  0  0  0  0
   12.8844   54.2509   13.4324 C   0  0  0  0  0  0  0  0  0  0  0  0
   14.6657   52.3971   15.5295 C   0  0  0  0  0  0  0  0  0  0  0  0
   13.4701   52.0459   16.1437 O   0  0  0  0  0  0  0  0  0  0  0  0
   13.3270   52.2934   17.5299 C   0  0  0  0  0  0  0  0  0  0  0  0
   15.9821   55.1140   13.5550 C   0  0  0  0  0  0  0  0  0  0  0  0
   15.1638   55.8355   14.3890 C   0  0  0  0  0  0  0  0  0  0  0  0
   14.5067   56.9811   14.0310 C   0  0  0  0  0  0  0  0  0  0  0  0
   14.6620   57.7469   12.8567 C   0  0  0  0  0  0  0  0  0  0  0  0
   13.6252   59.1846   12.7212 S   0  0  0  0  0  0  0  0  0  0  0  0
   13.0616   59.6436   14.3661 C   0  0  0  0  0  0  0  0  0  0  0  0
   15.5132   57.5290   11.7959 C   0  0  0  0  0  0  0  0  0  0  0  0
   15.5083   58.3771   10.8559 O   0  0  0  0  0  0  0  0  0  0  0  0
   16.4176   56.4907   11.5705 C   0  0  0  0  0  0  0  0  0  0  0  0
   16.6794   55.4535   12.3971 C   0  0  0  0  0  0  0  0  0  0  0  0
   17.8709   54.7251   11.8664 C   0  0  1  0  0  0  0  0  0  0  0  0
   18.5476   55.5025   10.8763 N   0  0  0  0  0  0  0  0  0  0  0  0
   18.5053   55.0833    9.5198 C   0  0  0  0  0  0  0  0  0  0  0  0
   17.4405   55.0629    8.8370 O   0  0  0  0  0  0  0  0  0  0  0  0
   18.7379   54.4258   13.0711 C   0  0  0  0  0  0  0  0  0  0  0  0
   18.4792   53.1356   13.7533 C   0  0  0  0  0  0  0  0  0  0  0  0
  1  2  1  0
  2  3  1  0
  3  4  2  0
  4  5  1  0
  5  6  2  0
  6  7  1  0
  7  8  1  0
  8  9  1  0
  7 10  2  0
 10 11  1  0
 11 12  1  0
  6 13  1  0
 13 14  2  0
 14 15  1  0
 15 16  2  0
 16 17  1  0
 17 18  1  0
 16 19  1  0
 19 20  2  0
 19 21  1  0
 21 22  2  0
 22 23  1  0
 23 24  1  6
 24 25  1  0
 25 26  2  0
 23 27  1  0
 27 28  1  0
 10  3  1  0
 22 13  1  0
 28  5  1  0
M  END
$$$$
