
     RDKit          3D

 29 31  0  0  0  0  0  0  0  0999 V2000
   14.9652   99.9958   50.9449 C   0  0  0  0  0  0  0  0  0  0  0  0
   14.3344  100.2318   52.2711 C   0  0  0  0  0  0  0  0  0  0  0  0
   14.1146  101.5113   52.6960 C   0  0  0  0  0  0  0  0  0  0  0  0
   13.5231  101.7087   53.9404 C   0  0  0  0  0  0  0  0  0  0  0  0
   13.1739  100.5914   54.7134 C   0  0  0  0  0  0  0  0  0  0  0  0
   12.6073  100.8103   55.9045 O   0  0  0  0  0  0  0  0  0  0  0  0
   12.1853   99.9557   56.8928 C   0  0  0  0  0  0  0  0  0  0  0  0
   11.1227   99.0895   56.8049 C   0  0  0  0  0  0  0  0  0  0  0  0
   10.7545   98.2584   57.8387 C   0  0  0  0  0  0  0  0  0  0  0  0
   11.4440   98.2408   59.0572 C   0  0  0  0  0  0  0  0  0  0  0  0
   10.9810   97.3480   60.0519 N   0  0  0  0  0  0  0  0  0  0  0  0
   11.7293   96.3388   60.6904 C   0  0  0  0  0  0  0  0  0  0  0  0
   12.8551   96.0363   60.2463 O   0  0  0  0  0  0  0  0  0  0  0  0
   11.2380   95.6463   61.8368 N   0  0  0  0  0  0  0  0  0  0  0  0
   11.8611   94.5803   62.4961 C   0  0  0  0  0  0  0  0  0  0  0  0
   11.2466   93.6955   63.3344 C   0  0  0  0  0  0  0  0  0  0  0  0
   11.9779   92.6583   63.9436 C   0  0  0  0  0  0  0  0  0  0  0  0
   13.3281   92.5242   63.6993 C   0  0  0  0  0  0  0  0  0  0  0  0
   14.2477   91.2214   64.4643 Cl  0  0  0  0  0  0  0  0  0  0  0  0
   13.9493   93.4164   62.8536 C   0  0  0  0  0  0  0  0  0  0  0  0
   15.3921   93.2810   62.5865 C   0  0  0  0  0  0  0  0  0  0  0  0
   15.8278   94.3572   61.8455 F   0  0  0  0  0  0  0  0  0  0  0  0
   15.6319   92.0813   61.9172 F   0  0  0  0  0  0  0  0  0  0  0  0
   16.1188   93.2858   63.7747 F   0  0  0  0  0  0  0  0  0  0  0  0
   13.2255   94.4106   62.2755 C   0  0  0  0  0  0  0  0  0  0  0  0
   12.4985   99.1012   59.1428 C   0  0  0  0  0  0  0  0  0  0  0  0
   12.8781   99.9410   58.1114 C   0  0  0  0  0  0  0  0  0  0  0  0
   13.4197   99.3713   54.2318 N   0  0  0  0  0  0  0  0  0  0  0  0
   13.9875   99.1261   53.0389 C   0  0  0  0  0  0  0  0  0  0  0  0
  1  2  1  0
  2  3  2  0
  3  4  1  0
  4  5  2  0
  5  6  1  0
  6  7  1  0
  7  8  2  0
  8  9  1  0
  9 10  2  0
 10 11  1  0
 11 12  1  0
 12 13  2  0
 12 14  1  0
 14 15  1  0
 15 16  2  0
 16 17  1  0
 17 18  2  0
 18 19  1  0
 18 20  1  0
 20 21  1  0
 21 22  1  0
 21 23  1  0
 21 24  1  0
 20 25  2  0
 10 26  1  0
 26 27  2  0
  5 28  1  0
 28 29  2  0
 29  2  1  0
 27  7  1  0
 25 15  1  0
M  END
$$$$
