
     RDKit          3D

 23 25  0  0  0  0  0  0  0  0999 V2000
   -1.8513   71.8176   33.3538 N   0  0  0  0  0  0  0  0  0  0  0  0
   -1.6345   70.6930   33.1817 C   0  0  0  0  0  0  0  0  0  0  0  0
   -1.3702   69.3577   32.9561 N   0  0  0  0  0  0  0  0  0  0  0  0
   -0.0705   68.7510   32.9026 C   0  0  0  0  0  0  0  0  0  0  0  0
   -0.1893   67.8211   31.7243 C   0  0  0  0  0  0  0  0  0  0  0  0
   -1.6424   67.5413   31.6110 C   0  0  1  0  0  0  0  0  0  0  0  0
   -2.0144   66.1759   31.5630 N   0  0  0  0  0  0  0  0  0  0  0  0
   -3.2919   65.7570   31.1179 C   0  0  0  0  0  0  0  0  0  0  0  0
   -4.0621   66.6646   30.6968 O   0  0  0  0  0  0  0  0  0  0  0  0
   -3.7137   64.3680   31.1356 C   0  0  0  0  0  0  0  0  0  0  0  0
   -2.8974   63.2542   30.9101 C   0  0  0  0  0  0  0  0  0  0  0  0
   -3.6813   62.1518   31.0182 C   0  0  0  0  0  0  0  0  0  0  0  0
   -3.3583   60.7425   30.8806 C   0  0  0  0  0  0  0  0  0  0  0  0
   -4.3789   59.8435   30.5517 C   0  0  0  0  0  0  0  0  0  0  0  0
   -4.1847   58.4936   30.3970 C   0  0  0  0  0  0  0  0  0  0  0  0
   -5.5286   57.4349   29.9822 Cl  0  0  0  0  0  0  0  0  0  0  0  0
   -2.9125   58.0096   30.5778 C   0  0  0  0  0  0  0  0  0  0  0  0
   -1.8676   58.8479   30.9029 C   0  0  0  0  0  0  0  0  0  0  0  0
   -2.1187   60.2128   31.0485 C   0  0  0  0  0  0  0  0  0  0  0  0
   -0.7304   61.1969   31.4619 Cl  0  0  0  0  0  0  0  0  0  0  0  0
   -4.9077   62.5763   31.2946 O   0  0  0  0  0  0  0  0  0  0  0  0
   -4.9270   63.8485   31.3621 N   0  0  0  0  0  0  0  0  0  0  0  0
   -2.3305   68.3137   32.7312 C   0  0  0  0  0  0  0  0  0  0  0  0
  1  2  3  0
  2  3  1  0
  3  4  1  0
  4  5  1  0
  5  6  1  0
  6  7  1  1
  7  8  1  0
  8  9  2  0
  8 10  1  0
 10 11  1  0
 11 12  2  0
 12 13  1  0
 13 14  2  0
 14 15  1  0
 15 16  1  0
 15 17  2  0
 17 18  1  0
 18 19  2  0
 19 20  1  0
 12 21  1  0
 21 22  1  0
  6 23  1  0
 23  3  1  0
 22 10  2  0
 19 13  1  0
M  END
$$$$
