
     RDKit          3D

 33 36  0  0  0  0  0  0  0  0999 V2000
   33.0133   81.7218   52.5737 N   0  0  0  0  0  0  0  0  0  0  0  0
   34.0935   81.2886   52.6977 C   0  0  0  0  0  0  0  0  0  0  0  0
   35.4316   80.7714   52.8327 C   0  0  0  0  0  0  0  0  0  0  0  0
   36.4382   81.1616   51.7700 C   0  0  0  0  0  0  0  0  0  0  0  0
   35.7469   81.2888   50.5500 N   0  0  0  0  0  0  0  0  0  0  0  0
   34.3789   81.6292   50.3591 C   0  0  0  0  0  0  0  0  0  0  0  0
   34.0590   81.4984   49.0500 C   0  0  0  0  0  0  0  0  0  0  0  0
   32.7594   81.5470   48.3024 C   0  0  0  0  0  0  0  0  0  0  0  0
   31.9061   82.5714   49.3095 N   0  0  0  0  0  0  0  0  0  0  0  0
   32.1702   81.3061   47.5469 O   0  0  0  0  0  0  0  0  0  0  0  0
   35.2966   81.0651   48.3916 C   0  0  0  0  0  0  0  0  0  0  0  0
   35.2570   80.8876   46.9889 N   0  0  0  0  0  0  0  0  0  0  0  0
   36.4959   80.2446   46.4433 C   0  0  0  0  0  0  0  0  0  0  0  0
   36.1736   79.6600   45.1473 C   0  0  0  0  0  0  0  0  0  0  0  0
   37.3530   79.2748   44.4599 C   0  0  0  0  0  0  0  0  0  0  0  0
   38.6508   79.4993   45.1169 C   0  0  0  0  0  0  0  0  0  0  0  0
   39.7787   79.1349   44.3732 F   0  0  0  0  0  0  0  0  0  0  0  0
   38.7421   80.0171   46.2929 C   0  0  0  0  0  0  0  0  0  0  0  0
   37.5782   80.4203   47.0152 C   0  0  0  0  0  0  0  0  0  0  0  0
   36.0697   80.9984   49.3628 N   0  0  0  0  0  0  0  0  0  0  0  0
   36.6109   82.6996   52.1469 C   0  0  0  0  0  0  0  0  0  0  0  0
   37.9397   83.1347   51.6427 C   0  0  0  0  0  0  0  0  0  0  0  0
   38.9169   82.5650   52.5756 N   0  0  0  0  0  0  0  0  0  0  0  0
   39.8419   83.4996   53.0852 C   0  0  0  0  0  0  0  0  0  0  0  0
   39.4182   84.7376   53.1021 O   0  0  0  0  0  0  0  0  0  0  0  0
   41.1827   83.3344   53.5853 C   0  0  0  0  0  0  0  0  0  0  0  0
   42.0552   84.4548   53.0345 C   0  0  0  0  0  0  0  0  0  0  0  0
   43.4604   84.2290   53.5544 C   0  0  0  0  0  0  0  0  0  0  0  0
   43.4835   84.1936   54.9130 O   0  0  0  0  0  0  0  0  0  0  0  0
   42.2356   84.5717   55.4863 C   0  0  0  0  0  0  0  0  0  0  0  0
   41.1330   83.6010   55.1053 C   0  0  0  0  0  0  0  0  0  0  0  0
   38.8014   81.1793   52.7762 C   0  0  0  0  0  0  0  0  0  0  0  0
   37.7090   80.4881   51.9802 C   0  0  0  0  0  0  0  0  0  0  0  0
  1  2  3  0
  2  3  1  0
  3  4  1  0
  4  5  1  0
  5  6  1  0
  6  7  2  0
  7  8  1  0
  8  9  1  0
  8 10  2  0
  7 11  1  0
 11 12  1  0
 12 13  1  0
 13 14  2  0
 14 15  1  0
 15 16  2  0
 16 17  1  0
 16 18  1  0
 18 19  2  0
 11 20  2  0
  4 21  1  0
 21 22  1  0
 22 23  1  0
 23 24  1  0
 24 25  2  0
 24 26  1  0
 26 27  1  0
 27 28  1  0
 28 29  1  0
 29 30  1  0
 30 31  1  0
 23 32  1  0
 32 33  1  0
 33  4  1  0
 20  5  1  0
 31 26  1  0
 19 13  1  0
M  END
$$$$
