
     RDKit          3D

 20 20  0  0  0  0  0  0  0  0999 V2000
   41.1647   83.4813   51.0672 C   0  0  0  0  0  0  0  0  0  0  0  0
   41.0965   82.3210   50.1460 C   0  0  0  0  0  0  0  0  0  0  0  0
   39.8839   82.1516   49.3965 N   0  0  0  0  0  0  0  0  0  0  0  0
   39.6633   83.1539   48.4225 C   0  0  0  0  0  0  0  0  0  0  0  0
   38.4766   82.9348   47.5245 C   0  0  0  0  0  0  0  0  0  0  0  0
   38.8083   81.5794   50.0852 C   0  0  0  0  0  0  0  0  0  0  0  0
   38.1624   82.4213   51.1673 C   0  0  0  0  0  0  0  0  0  0  0  0
   37.1236   81.7431   51.8592 N   0  0  0  0  0  0  0  0  0  0  0  0
   37.4492   80.9924   53.0536 C   0  0  0  0  0  0  0  0  0  0  0  0
   38.5895   81.1309   53.6198 O   0  0  0  0  0  0  0  0  0  0  0  0
   36.5084   80.0379   53.6806 C   0  0  0  0  0  0  0  0  0  0  0  0
   35.1422   80.3013   53.3495 N   0  0  0  0  0  0  0  0  0  0  0  0
   34.7887   81.0332   52.1706 C   0  0  0  0  0  0  0  0  0  0  0  0
   33.4760   81.0438   51.7289 C   0  0  0  0  0  0  0  0  0  0  0  0
   33.0644   81.7132   50.6079 C   0  0  0  0  0  0  0  0  0  0  0  0
   31.2440   81.7053   50.0237 Br  0  0  0  0  0  0  0  0  0  0  0  0
   34.0463   82.3917   49.9233 C   0  0  0  0  0  0  0  0  0  0  0  0
   35.3589   82.4101   50.3208 C   0  0  0  0  0  0  0  0  0  0  0  0
   35.7703   81.7309   51.4577 C   0  0  0  0  0  0  0  0  0  0  0  0
   36.9760   81.8110   50.9743 Cl  0  0  0  0  0  0  0  0  0  0  0  0
  1  2  1  0
  2  3  1  0
  3  4  1  0
  4  5  1  0
  3  6  1  0
  6  7  1  0
  7  8  1  0
  8  9  1  0
  9 10  2  0
  9 11  1  0
 11 12  1  0
 12 13  1  0
 13 14  2  0
 14 15  1  0
 15 16  1  0
 15 17  2  0
 17 18  1  0
 18 19  2  0
 19  8  1  0
 19 13  1  0
M  END
$$$$
