
     RDKit          3D

 39 43  0  0  0  0  0  0  0  0999 V2000
   17.9806   99.4961   56.3013 C   0  0  0  0  0  0  0  0  0  0  0  0
   16.8192  100.2043   55.7063 C   0  0  0  0  0  0  0  0  0  0  0  0
   15.8826  100.7861   55.2213 C   0  0  0  0  0  0  0  0  0  0  0  0
   14.7543  101.5082   54.6483 C   0  0  0  0  0  0  0  0  0  0  0  0
   13.7310  100.6718   54.0854 N   0  0  0  0  0  0  0  0  0  0  0  0
   13.6219  100.2677   52.8085 C   0  0  0  0  0  0  0  0  0  0  0  0
   14.4295  100.4701   51.6657 N   0  0  0  0  0  0  0  0  0  0  0  0
   13.8759  100.0109   50.3736 C   0  0  0  0  0  0  0  0  0  0  0  0
   14.5071  100.7959   49.2217 C   0  0  0  0  0  0  0  0  0  0  0  0
   16.0063  100.5508   49.1964 C   0  0  0  0  0  0  0  0  0  0  0  0
   16.5257  100.1960   50.5555 C   0  0  1  0  0  0  0  0  0  0  0  0
   17.9495  100.4577   50.7055 N   0  0  0  0  0  0  0  0  0  0  0  0
   15.7246  101.0456   51.5782 C   0  0  0  0  0  0  0  0  0  0  0  0
   12.4754   99.5073   52.7566 N   0  0  0  0  0  0  0  0  0  0  0  0
   11.8864   99.4331   53.9454 C   0  0  0  0  0  0  0  0  0  0  0  0
   12.6764  100.1701   54.7996 C   0  0  0  0  0  0  0  0  0  0  0  0
   12.2501  100.2363   56.1112 C   0  0  0  0  0  0  0  0  0  0  0  0
   12.9570  100.9051   56.9165 O   0  0  0  0  0  0  0  0  0  0  0  0
   11.1177   99.6164   56.5511 N   0  0  0  0  0  0  0  0  0  0  0  0
   10.7809   99.7624   57.9209 C   0  0  0  0  0  0  0  0  0  0  0  0
   11.7872   99.2607   58.8917 C   0  0  0  0  0  0  0  0  0  0  0  0
   11.4748   97.8601   59.3464 C   0  0  0  0  0  0  0  0  0  0  0  0
   11.9846   97.4616   60.5745 N   0  0  0  0  0  0  0  0  0  0  0  0
   13.2010   96.7465   60.4574 C   0  0  0  0  0  0  0  0  0  0  0  0
   12.9608   95.2489   60.6125 C   0  0  0  0  0  0  0  0  0  0  0  0
   12.4294   95.0664   61.9497 N   0  0  0  0  0  0  0  0  0  0  0  0
   13.0860   94.1768   62.8250 C   0  0  0  0  0  0  0  0  0  0  0  0
   12.4114   93.2929   63.6368 C   0  0  0  0  0  0  0  0  0  0  0  0
   13.0370   92.4031   64.4903 C   0  0  0  0  0  0  0  0  0  0  0  0
   14.3984   92.3832   64.5475 C   0  0  0  0  0  0  0  0  0  0  0  0
   15.0843   91.5252   65.3752 F   0  0  0  0  0  0  0  0  0  0  0  0
   15.1176   93.2493   63.7543 C   0  0  0  0  0  0  0  0  0  0  0  0
   14.4580   94.1414   62.8971 C   0  0  0  0  0  0  0  0  0  0  0  0
   11.2350   95.8148   62.2504 C   0  0  0  0  0  0  0  0  0  0  0  0
   11.1628   97.1801   61.6675 C   0  0  0  0  0  0  0  0  0  0  0  0
   10.4036   98.9188   55.6601 C   0  0  0  0  0  0  0  0  0  0  0  0
    9.3390   98.3335   56.0658 O   0  0  0  0  0  0  0  0  0  0  0  0
   10.7606   98.8142   54.3758 N   0  0  0  0  0  0  0  0  0  0  0  0
    9.9386   98.0448   53.4770 C   0  0  0  0  0  0  0  0  0  0  0  0
  1  2  1  0
  2  3  3  0
  3  4  1  0
  4  5  1  0
  5  6  1  0
  6  7  1  0
  7  8  1  0
  8  9  1  0
  9 10  1  0
 10 11  1  0
 11 12  1  6
 11 13  1  0
  6 14  2  0
 14 15  1  0
 15 16  2  0
 16 17  1  0
 17 18  2  0
 17 19  1  0
 19 20  1  0
 20 21  1  0
 21 22  1  0
 22 23  1  0
 23 24  1  0
 24 25  1  0
 25 26  1  0
 26 27  1  0
 27 28  2  0
 28 29  1  0
 29 30  2  0
 30 31  1  0
 30 32  1  0
 32 33  2  0
 26 34  1  0
 34 35  1  0
 19 36  1  0
 36 37  2  0
 36 38  1  0
 38 39  1  0
 16  5  1  0
 35 23  1  0
 13  7  1  0
 38 15  1  0
 33 27  1  0
M  END
$$$$
