
     RDKit          3D

 34 36  0  0  0  0  0  0  0  0999 V2000
   15.3252   48.8482   21.0220 C   0  0  0  0  0  0  0  0  0  0  0  0
   14.9846   48.3921   19.7278 O   0  0  0  0  0  0  0  0  0  0  0  0
   15.3003   49.1308   18.5860 C   0  0  0  0  0  0  0  0  0  0  0  0
   16.6055   49.4660   18.3031 C   0  0  0  0  0  0  0  0  0  0  0  0
   16.9513   50.2047   17.1667 C   0  0  0  0  0  0  0  0  0  0  0  0
   15.9768   50.6292   16.2777 C   0  0  0  0  0  0  0  0  0  0  0  0
   16.3166   51.4177   15.1412 N   0  0  0  0  0  0  0  0  0  0  0  0
   17.2627   50.9958   14.1536 C   0  0  0  0  0  0  0  0  0  0  0  0
   17.8773   49.9092   14.2713 O   0  0  0  0  0  0  0  0  0  0  0  0
   17.5698   51.7707   12.9876 N   0  0  0  0  0  0  0  0  0  0  0  0
   16.9436   53.0203   12.7436 C   0  0  0  0  0  0  0  0  0  0  0  0
   17.1992   53.7194   11.7234 O   0  0  0  0  0  0  0  0  0  0  0  0
   15.9710   53.5069   13.7109 C   0  0  0  0  0  0  0  0  0  0  0  0
   15.3552   54.6632   13.5428 C   0  0  0  0  0  0  0  0  0  0  0  0
   15.6174   55.5517   12.4673 N   0  0  0  0  0  0  0  0  0  0  0  0
   14.9639   56.7980   12.4758 C   0  0  0  0  0  0  0  0  0  0  0  0
   15.6005   57.9156   12.9300 C   0  0  0  0  0  0  0  0  0  0  0  0
   14.9505   59.1736   12.9485 C   0  0  0  0  0  0  0  0  0  0  0  0
   13.6754   59.2874   12.5112 C   0  0  0  0  0  0  0  0  0  0  0  0
   12.9935   60.5254   12.5014 N   0  0  0  0  0  0  0  0  0  0  0  0
   11.7692   60.7962   11.8808 C   0  0  0  0  0  0  0  0  0  0  0  0
   11.3322   60.0343   10.9504 O   0  0  0  0  0  0  0  0  0  0  0  0
   10.9628   61.9453   12.2722 C   0  0  0  0  0  0  0  0  0  0  0  0
   10.8636   63.0176   11.5562 C   0  0  0  0  0  0  0  0  0  0  0  0
   10.7085   64.3703   12.1790 C   0  0  0  0  0  0  0  0  0  0  0  0
    9.4013   64.9277   11.8793 N   0  0  0  0  0  0  0  0  0  0  0  0
    9.3065   65.2475   10.4673 C   0  0  0  0  0  0  0  0  0  0  0  0
    9.1796   66.1237   12.6806 C   0  0  0  0  0  0  0  0  0  0  0  0
   13.0263   58.1368   12.0460 C   0  0  0  0  0  0  0  0  0  0  0  0
   13.6723   56.9320   12.0371 C   0  0  0  0  0  0  0  0  0  0  0  0
   15.6902   52.6717   14.8935 C   0  0  0  0  0  0  0  0  0  0  0  0
   14.8538   53.1328   15.6810 O   0  0  0  0  0  0  0  0  0  0  0  0
   14.6824   50.2869   16.5752 C   0  0  0  0  0  0  0  0  0  0  0  0
   14.3261   49.5458   17.7119 C   0  0  0  0  0  0  0  0  0  0  0  0
  1  2  1  0
  2  3  1  0
  3  4  2  0
  4  5  1  0
  5  6  2  0
  6  7  1  0
  7  8  1  0
  8  9  2  0
  8 10  1  0
 10 11  1  0
 11 12  2  0
 11 13  1  0
 13 14  2  3
 14 15  1  0
 15 16  1  0
 16 17  2  0
 17 18  1  0
 18 19  2  0
 19 20  1  0
 20 21  1  0
 21 22  2  0
 21 23  1  0
 23 24  2  0
 24 25  1  0
 25 26  1  0
 26 27  1  0
 26 28  1  0
 19 29  1  0
 29 30  2  0
 13 31  1  0
 31 32  2  0
  6 33  1  0
 33 34  2  0
 34  3  1  0
 31  7  1  0
 30 16  1  0
M  END
$$$$
