
     RDKit          3D

 22 23  0  0  0  0  0  0  0  0999 V2000
   33.0617   81.6878   51.9852 O   0  0  0  0  0  0  0  0  0  0  0  0
   33.2400   82.2503   50.8770 C   0  0  0  0  0  0  0  0  0  0  0  0
   34.4721   82.7953   50.5282 N   0  0  0  0  0  0  0  0  0  0  0  0
   35.7086   82.0898   50.4274 C   0  0  0  0  0  0  0  0  0  0  0  0
   36.7664   82.6502   51.3005 C   0  0  0  0  0  0  0  0  0  0  0  0
   37.9390   82.9166   50.6609 O   0  0  0  0  0  0  0  0  0  0  0  0
   37.0964   81.7274   52.4415 C   0  0  0  0  0  0  0  0  0  0  0  0
   36.1447   80.8580   52.9149 C   0  0  0  0  0  0  0  0  0  0  0  0
   36.4137   79.9871   53.9682 C   0  0  0  0  0  0  0  0  0  0  0  0
   37.6536   79.9744   54.5686 C   0  0  0  0  0  0  0  0  0  0  0  0
   38.6131   80.8421   54.1005 C   0  0  0  0  0  0  0  0  0  0  0  0
   38.3223   81.6943   53.0572 C   0  0  0  0  0  0  0  0  0  0  0  0
   32.0625   82.2909   49.9812 C   0  0  0  0  0  0  0  0  0  0  0  0
   32.1533   81.9747   48.6446 C   0  0  0  0  0  0  0  0  0  0  0  0
   31.0443   82.0041   47.8223 C   0  0  0  0  0  0  0  0  0  0  0  0
   29.7998   82.3518   48.3063 C   0  0  0  0  0  0  0  0  0  0  0  0
   29.7007   82.6699   49.6415 C   0  0  0  0  0  0  0  0  0  0  0  0
   30.8234   82.6404   50.4758 C   0  0  0  0  0  0  0  0  0  0  0  0
   30.7065   82.9916   51.9186 C   0  0  0  0  0  0  0  0  0  0  0  0
   30.1418   84.2481   52.0823 F   0  0  0  0  0  0  0  0  0  0  0  0
   31.9773   82.9449   52.4571 F   0  0  0  0  0  0  0  0  0  0  0  0
   29.8703   82.0995   52.5714 F   0  0  0  0  0  0  0  0  0  0  0  0
  1  2  2  0
  2  3  1  0
  3  4  1  0
  4  5  1  0
  5  6  1  0
  5  7  1  0
  7  8  2  0
  8  9  1  0
  9 10  2  0
 10 11  1  0
 11 12  2  0
  2 13  1  0
 13 14  2  0
 14 15  1  0
 15 16  2  0
 16 17  1  0
 17 18  2  0
 18 19  1  0
 19 20  1  0
 19 21  1  0
 19 22  1  0
 12  7  1  0
 18 13  1  0
M  END
$$$$
