
     RDKit          3D

 32 35  0  0  0  0  0  0  0  0999 V2000
   10.4788  102.5769   59.0608 C   0  0  0  0  0  0  0  0  0  0  0  0
    9.7943  101.2845   58.6949 C   0  0  0  0  0  0  0  0  0  0  0  0
   10.2778  100.1650   59.5520 C   0  0  0  0  0  0  0  0  0  0  0  0
    9.9053   99.8756   60.8081 N   0  0  0  0  0  0  0  0  0  0  0  0
   10.6026   98.7873   61.2119 C   0  0  0  0  0  0  0  0  0  0  0  0
   10.5981   98.0891   62.3976 C   0  0  0  0  0  0  0  0  0  0  0  0
   11.4165   97.0031   62.5477 C   0  0  0  0  0  0  0  0  0  0  0  0
   12.2404   96.6040   61.5288 C   0  0  0  0  0  0  0  0  0  0  0  0
   13.1523   95.4873   61.5689 C   0  0  0  0  0  0  0  0  0  0  0  0
   14.1987   95.5983   60.8075 O   0  0  0  0  0  0  0  0  0  0  0  0
   13.1032   94.2999   62.2960 N   0  0  0  0  0  0  0  0  0  0  0  0
   11.7919   93.7771   62.7251 C   0  0  0  0  0  0  0  0  0  0  0  0
   11.8837   93.4738   64.2023 C   0  0  0  0  0  0  0  0  0  0  0  0
   12.8578   92.4401   64.4746 N   0  0  0  0  0  0  0  0  0  0  0  0
   12.3633   91.3503   65.2250 C   0  0  0  0  0  0  0  0  0  0  0  0
   13.3622   90.4162   65.8175 C   0  0  0  0  0  0  0  0  0  0  0  0
   12.8411   89.6395   66.8488 O   0  0  0  0  0  0  0  0  0  0  0  0
   13.7103   92.1611   63.3734 C   0  0  0  0  0  0  0  0  0  0  0  0
   14.2101   93.4713   62.7169 C   0  0  0  0  0  0  0  0  0  0  0  0
   12.1934   97.3596   60.3480 C   0  0  0  0  0  0  0  0  0  0  0  0
   11.4057   98.4129   60.1890 N   0  0  0  0  0  0  0  0  0  0  0  0
   11.2248   99.2476   59.1472 C   0  0  0  0  0  0  0  0  0  0  0  0
   11.8849   99.1857   57.8937 N   0  0  0  0  0  0  0  0  0  0  0  0
   11.0960   99.1160   56.6472 C   0  0  0  0  0  0  0  0  0  0  0  0
   13.2839   99.1759   57.7458 C   0  0  0  0  0  0  0  0  0  0  0  0
   13.9827   99.0205   58.8100 O   0  0  0  0  0  0  0  0  0  0  0  0
   14.0139   99.3218   56.5125 C   0  0  0  0  0  0  0  0  0  0  0  0
   13.8716  100.4570   55.7024 C   0  0  0  0  0  0  0  0  0  0  0  0
   14.5632  100.6034   54.5255 C   0  0  0  0  0  0  0  0  0  0  0  0
   15.4402   99.6152   54.0907 C   0  0  0  0  0  0  0  0  0  0  0  0
   15.6037   98.4923   54.8576 C   0  0  0  0  0  0  0  0  0  0  0  0
   14.8965   98.3735   56.0334 C   0  0  0  0  0  0  0  0  0  0  0  0
  1  2  1  0
  2  3  1  0
  3  4  1  0
  4  5  2  0
  5  6  1  0
  6  7  2  0
  7  8  1  0
  8  9  1  0
  9 10  2  0
  9 11  1  0
 11 12  1  0
 12 13  1  0
 13 14  1  0
 14 15  1  0
 15 16  1  0
 16 17  1  0
 14 18  1  0
 18 19  1  0
  8 20  2  0
 20 21  1  0
 21 22  1  0
 22 23  1  0
 23 24  1  0
 23 25  1  0
 25 26  2  0
 25 27  1  0
 27 28  2  0
 28 29  1  0
 29 30  2  0
 30 31  1  0
 31 32  2  0
 22  3  2  0
 32 27  1  0
 21  5  1  0
 19 11  1  0
M  END
$$$$
