
     RDKit          3D

 20 21  0  0  0  0  0  0  0  0999 V2000
   16.7648   48.1876   20.6270 N   0  0  0  0  0  0  0  0  0  0  0  0
   16.0926   48.9032   19.6350 C   0  0  0  0  0  0  0  0  0  0  0  0
   15.4590   49.5592   18.6982 C   0  0  0  0  0  0  0  0  0  0  0  0
   14.0364   49.6199   18.5870 C   0  0  0  0  0  0  0  0  0  0  0  0
   13.4658   50.2153   17.5184 C   0  0  0  0  0  0  0  0  0  0  0  0
   14.1927   50.7908   16.5005 C   0  0  0  0  0  0  0  0  0  0  0  0
   15.5550   50.7736   16.5510 C   0  0  0  0  0  0  0  0  0  0  0  0
   16.4813   51.3357   15.5100 C   0  0  0  0  0  0  0  0  0  0  0  0
   16.0407   52.3826   14.8429 O   0  0  0  0  0  0  0  0  0  0  0  0
   16.5042   52.8373   13.6657 C   0  0  0  0  0  0  0  0  0  0  0  0
   16.1547   54.2653   13.4483 C   0  0  0  0  0  0  0  0  0  0  0  0
   16.4198   55.4153   14.1169 C   0  0  0  0  0  0  0  0  0  0  0  0
   15.9202   56.6347   13.8759 C   0  0  0  0  0  0  0  0  0  0  0  0
   15.0258   56.9103   12.8886 C   0  0  0  0  0  0  0  0  0  0  0  0
   14.2295   57.8449   12.2156 C   0  0  0  0  0  0  0  0  0  0  0  0
   13.5903   58.6220   11.6644 C   0  0  0  0  0  0  0  0  0  0  0  0
   12.7914   59.6244   10.9508 C   0  0  0  0  0  0  0  0  0  0  0  0
   11.8527   60.1693   11.9016 O   0  0  0  0  0  0  0  0  0  0  0  0
   14.8881   54.9066   12.1036 Se  0  0  0  0  0  2  0  0  0  0  0  0
   16.1470   50.1771   17.6218 C   0  0  0  0  0  0  0  0  0  0  0  0
  1  2  3  0
  2  3  1  0
  3  4  2  0
  4  5  1  0
  5  6  2  0
  6  7  1  0
  7  8  1  0
  8  9  1  0
  9 10  1  0
 10 11  1  0
 11 12  2  0
 12 13  1  0
 13 14  2  0
 14 15  1  0
 15 16  3  0
 16 17  1  0
 17 18  1  0
 14 19  1  0
  7 20  2  0
 20  3  1  0
 19 11  1  0
M  END
$$$$
