
     RDKit          3D

 23 25  0  0  0  0  0  0  0  0999 V2000
   12.1814  102.2803   54.3765 C   0  0  0  0  0  0  0  0  0  0  0  0
   12.2277  101.1480   55.3797 C   0  0  0  0  0  0  0  0  0  0  0  0
   12.7370  100.0479   55.0631 O   0  0  0  0  0  0  0  0  0  0  0  0
   11.6763  101.4064   56.6545 N   0  0  0  0  0  0  0  0  0  0  0  0
   11.4563  100.4518   57.6431 C   0  0  0  0  0  0  0  0  0  0  0  0
   10.7224  100.6633   58.7754 C   0  0  0  0  0  0  0  0  0  0  0  0
   10.5817   99.6245   59.6806 C   0  0  0  0  0  0  0  0  0  0  0  0
   11.1467   98.3894   59.4927 C   0  0  0  0  0  0  0  0  0  0  0  0
   11.0059   97.2706   60.4491 C   0  0  0  0  0  0  0  0  0  0  0  0
   12.2609   96.5849   60.6524 N   0  0  0  0  0  0  0  0  0  0  0  0
   12.4132   95.4902   61.5364 C   0  0  0  0  0  0  0  0  0  0  0  0
   11.3489   94.8600   62.1309 C   0  0  0  0  0  0  0  0  0  0  0  0
   11.4766   93.7993   62.9889 C   0  0  0  0  0  0  0  0  0  0  0  0
   12.7412   93.3305   63.2782 C   0  0  0  0  0  0  0  0  0  0  0  0
   12.9048   92.2312   64.1650 N   0  0  0  0  0  0  0  0  0  0  0  0
   13.9362   91.9168   64.9636 C   0  0  0  0  0  0  0  0  0  0  0  0
   13.6381   90.7676   65.6311 N   0  0  0  0  0  0  0  0  0  0  0  0
   12.4327   90.4229   65.2134 N   0  0  0  0  0  0  0  0  0  0  0  0
   11.9975   91.2929   64.3423 N   0  0  0  0  0  0  0  0  0  0  0  0
   13.8352   93.9515   62.6889 C   0  0  0  0  0  0  0  0  0  0  0  0
   13.6724   95.0133   61.8327 C   0  0  0  0  0  0  0  0  0  0  0  0
   11.8871   98.1813   58.3469 C   0  0  0  0  0  0  0  0  0  0  0  0
   12.0380   99.1900   57.4433 C   0  0  0  0  0  0  0  0  0  0  0  0
  1  2  1  0
  2  3  2  0
  2  4  1  0
  4  5  1  0
  5  6  2  0
  6  7  1  0
  7  8  2  0
  8  9  1  0
  9 10  1  0
 10 11  1  0
 11 12  2  0
 12 13  1  0
 13 14  2  0
 14 15  1  0
 15 16  1  0
 16 17  2  0
 17 18  1  0
 18 19  2  0
 14 20  1  0
 20 21  2  0
  8 22  1  0
 22 23  2  0
 23  5  1  0
 21 11  1  0
 19 15  1  0
M  END
$$$$
