
     RDKit          3D

 26 29  0  0  0  0  0  0  0  0999 V2000
   15.2954   92.7953   63.4315 N   0  0  0  0  0  0  0  0  0  0  0  0
   13.9989   93.1807   63.9185 C   0  0  0  0  0  0  0  0  0  0  0  0
   13.4927   92.2719   64.9852 C   0  0  0  0  0  0  0  0  0  0  0  0
   12.6382   91.2284   64.7217 C   0  0  0  0  0  0  0  0  0  0  0  0
   12.1799   90.3769   65.7327 C   0  0  0  0  0  0  0  0  0  0  0  0
   12.5796   90.5647   67.0408 C   0  0  0  0  0  0  0  0  0  0  0  0
   13.4338   91.6080   67.3058 C   0  0  0  0  0  0  0  0  0  0  0  0
   13.8801   92.4422   66.3026 C   0  0  0  0  0  0  0  0  0  0  0  0
   12.9940   93.5357   62.8803 C   0  0  0  0  0  0  0  0  0  0  0  0
   11.7610   93.6884   63.5401 O   0  0  0  0  0  0  0  0  0  0  0  0
   13.2652   94.8173   62.1211 C   0  0  0  0  0  0  0  0  0  0  0  0
   12.3636   94.7881   60.9137 C   0  0  0  0  0  0  0  0  0  0  0  0
   11.6957   96.0722   60.5819 C   0  0  0  0  0  0  0  0  0  0  0  0
   10.4929   96.3724   61.4444 C   0  0  0  0  0  0  0  0  0  0  0  0
   10.9883   97.2317   62.5716 C   0  0  0  0  0  0  0  0  0  0  0  0
   12.5015   97.2294   62.3131 C   0  0  0  0  0  0  0  0  0  0  0  0
   13.0773   96.0355   62.9701 C   0  0  0  0  0  0  0  0  0  0  0  0
   12.5783   97.2080   60.8505 N   0  0  0  0  0  0  0  0  0  0  0  0
   11.9327   98.3643   60.3120 C   0  0  0  0  0  0  0  0  0  0  0  0
   12.0930   98.5460   58.8263 C   0  0  0  0  0  0  0  0  0  0  0  0
   11.6740   99.9525   58.4938 C   0  0  0  0  0  0  0  0  0  0  0  0
   10.6641  100.6046   59.1663 C   0  0  0  0  0  0  0  0  0  0  0  0
   10.2898  101.9115   58.8377 C   0  0  0  0  0  0  0  0  0  0  0  0
   10.9227  102.5803   57.8317 C   0  0  0  0  0  0  0  0  0  0  0  0
   11.9300  101.9410   57.1546 C   0  0  0  0  0  0  0  0  0  0  0  0
   12.3184  100.6428   57.4643 C   0  0  0  0  0  0  0  0  0  0  0  0
  1  2  1  0
  2  3  1  0
  3  4  2  0
  4  5  1  0
  5  6  2  0
  6  7  1  0
  7  8  2  0
  2  9  1  0
  9 10  1  0
  9 11  1  0
 11 12  1  0
 12 13  1  0
 13 14  1  0
 14 15  1  0
 15 16  1  0
 16 17  1  0
 16 18  1  0
 18 19  1  0
 19 20  1  0
 20 21  1  0
 21 22  2  0
 22 23  1  0
 23 24  2  0
 24 25  1  0
 25 26  2  0
  8  3  1  0
 17 11  1  0
 26 21  1  0
 18 13  1  0
M  END
$$$$
