
     RDKit          3D

 21 22  0  0  0  0  0  0  0  0999 V2000
  -10.8826   58.2303   32.3749 C   0  0  0  0  0  0  0  0  0  0  0  0
  -10.3735   59.2348   31.5502 O   0  0  0  0  0  0  0  0  0  0  0  0
   -9.1065   59.7435   31.5386 C   0  0  0  0  0  0  0  0  0  0  0  0
   -8.5907   60.1618   30.3264 C   0  0  0  0  0  0  0  0  0  0  0  0
   -7.3106   60.6865   30.2585 C   0  0  0  0  0  0  0  0  0  0  0  0
   -6.5041   60.8163   31.3626 C   0  0  0  0  0  0  0  0  0  0  0  0
   -5.1533   61.3997   31.2028 C   0  0  2  0  0  0  0  0  0  0  0  0
   -5.2547   62.9280   31.0666 C   0  0  0  0  0  0  0  0  0  0  0  0
   -4.1425   63.5200   31.8599 C   0  0  0  0  0  0  0  0  0  0  0  0
   -4.1008   64.9297   31.9723 N   0  0  0  0  0  0  0  0  0  0  0  0
   -5.2270   65.4926   32.6957 C   0  0  0  0  0  0  0  0  0  0  0  0
   -3.9626   65.6667   30.7597 C   0  0  0  0  0  0  0  0  0  0  0  0
   -4.3550   60.6571   29.7849 S   0  0  0  0  0  0  0  0  0  0  0  0
   -2.8021   59.9701   30.2922 C   0  0  0  0  0  0  0  0  0  0  0  0
   -2.3960   60.0537   31.5968 C   0  0  0  0  0  0  0  0  0  0  0  0
   -1.1839   59.5255   32.0035 C   0  0  0  0  0  0  0  0  0  0  0  0
   -0.3877   58.9119   31.0739 C   0  0  0  0  0  0  0  0  0  0  0  0
   -0.7568   58.8044   29.7475 C   0  0  0  0  0  0  0  0  0  0  0  0
   -1.9880   59.3508   29.3793 C   0  0  0  0  0  0  0  0  0  0  0  0
   -7.0154   60.3999   32.5721 C   0  0  0  0  0  0  0  0  0  0  0  0
   -8.2952   59.8732   32.6535 C   0  0  0  0  0  0  0  0  0  0  0  0
  1  2  1  0
  2  3  1  0
  3  4  2  0
  4  5  1  0
  5  6  2  0
  6  7  1  0
  7  8  1  6
  8  9  1  0
  9 10  1  0
 10 11  1  0
 10 12  1  0
  7 13  1  0
 13 14  1  0
 14 15  2  0
 15 16  1  0
 16 17  2  0
 17 18  1  0
 18 19  2  0
  6 20  1  0
 20 21  2  0
 21  3  1  0
 19 14  1  0
M  END
$$$$
