
     RDKit          3D

 26 28  0  0  0  0  0  0  0  0999 V2000
   15.9160   94.4109   64.6263 C   0  0  0  0  0  0  0  0  0  0  0  0
   15.8497   95.6968   63.9980 O   0  0  0  0  0  0  0  0  0  0  0  0
   14.7390   95.9672   63.1931 C   0  0  0  0  0  0  0  0  0  0  0  0
   14.4672   97.2217   62.7479 C   0  0  0  0  0  0  0  0  0  0  0  0
   13.3456   97.4566   61.9427 C   0  0  0  0  0  0  0  0  0  0  0  0
   12.4825   96.4503   61.5713 C   0  0  0  0  0  0  0  0  0  0  0  0
   11.3327   96.7676   60.7218 C   0  0  0  0  0  0  0  0  0  0  0  0
   11.1494   98.1442   60.3926 N   0  0  0  0  0  0  0  0  0  0  0  0
   10.4239   98.9939   61.0541 N   0  0  0  0  0  0  0  0  0  0  0  0
   10.4613  100.1907   60.4863 C   0  0  0  0  0  0  0  0  0  0  0  0
   11.2761  100.1035   59.3697 C   0  0  0  0  0  0  0  0  0  0  0  0
   11.7032   98.7977   59.3272 C   0  0  0  0  0  0  0  0  0  0  0  0
   12.5600   98.1934   58.3608 N   0  0  0  0  0  0  0  0  0  0  0  0
   13.1286   98.9019   57.2800 C   0  0  0  0  0  0  0  0  0  0  0  0
   12.8111  100.0702   57.0198 O   0  0  0  0  0  0  0  0  0  0  0  0
   14.1120   98.2952   56.4227 N   0  0  0  0  0  0  0  0  0  0  0  0
   15.0623   99.0688   55.6693 C   0  0  0  0  0  0  0  0  0  0  0  0
   14.4999   99.6270   54.4248 C   0  0  0  0  0  0  0  0  0  0  0  0
   13.2866  100.1843   54.2845 N   0  0  0  0  0  0  0  0  0  0  0  0
   13.1084  100.5838   53.0088 C   0  0  0  0  0  0  0  0  0  0  0  0
   14.2421  100.2612   52.3587 N   0  0  0  0  0  0  0  0  0  0  0  0
   14.4972  100.5061   50.9599 C   0  0  0  0  0  0  0  0  0  0  0  0
   15.0766   99.6849   53.2176 N   0  0  0  0  0  0  0  0  0  0  0  0
   12.7880   95.1868   62.0410 C   0  0  0  0  0  0  0  0  0  0  0  0
   11.8894   94.0634   61.6635 C   0  0  0  0  0  0  0  0  0  0  0  0
   13.8887   94.9443   62.8334 C   0  0  0  0  0  0  0  0  0  0  0  0
  1  2  1  0
  2  3  1  0
  3  4  2  0
  4  5  1  0
  5  6  2  0
  6  7  1  0
  7  8  1  0
  8  9  1  0
  9 10  2  0
 10 11  1  0
 11 12  2  0
 12 13  1  0
 13 14  1  0
 14 15  2  0
 14 16  1  0
 16 17  1  0
 17 18  1  0
 18 19  1  0
 19 20  2  0
 20 21  1  0
 21 22  1  0
 21 23  1  0
  6 24  1  0
 24 25  1  0
 24 26  2  0
 26  3  1  0
 12  8  1  0
 23 18  2  0
M  END
$$$$
