
     RDKit          3D

 22 23  0  0  0  0  0  0  0  0999 V2000
   18.5091   49.2736   17.9740 C   0  0  0  0  0  0  0  0  0  0  0  0
   17.0659   49.3989   17.9010 N   0  0  0  0  0  0  0  0  0  0  0  0
   16.1886   48.7457   18.6511 N   0  0  0  0  0  0  0  0  0  0  0  0
   14.9401   49.0956   18.3249 C   0  0  0  0  0  0  0  0  0  0  0  0
   13.7208   48.5458   18.9774 C   0  0  0  0  0  0  0  0  0  0  0  0
   14.2025   47.4871   19.9609 C   0  0  0  0  0  0  0  0  0  0  0  0
   13.0021   49.6690   19.7025 C   0  0  0  0  0  0  0  0  0  0  0  0
   12.8469   47.9482   17.8957 C   0  0  0  0  0  0  0  0  0  0  0  0
   15.0064   50.0233   17.3115 C   0  0  0  0  0  0  0  0  0  0  0  0
   16.3778   50.1916   17.0678 C   0  0  0  0  0  0  0  0  0  0  0  0
   16.9543   51.0707   16.0848 C   0  0  0  0  0  0  0  0  0  0  0  0
   18.1340   50.8727   15.6990 O   0  0  0  0  0  0  0  0  0  0  0  0
   16.1953   52.1658   15.5450 N   0  0  0  0  0  0  0  0  0  0  0  0
   16.8153   52.9187   14.4828 C   0  0  0  0  0  0  0  0  0  0  0  0
   15.8502   53.5654   13.5900 C   0  0  0  0  0  0  0  0  0  0  0  0
   14.6188   53.5487   13.8128 O   0  0  0  0  0  0  0  0  0  0  0  0
   16.3380   54.2326   12.4334 N   0  0  0  0  0  0  0  0  0  0  0  0
   17.7624   54.3983   12.2185 C   0  0  0  0  0  0  0  0  0  0  0  0
   17.9611   55.5040   11.1961 C   0  0  0  0  0  0  0  0  0  0  0  0
   17.0725   56.6577   11.5617 C   0  0  0  0  0  0  0  0  0  0  0  0
   15.6337   56.2684   11.2745 C   0  0  0  0  0  0  0  0  0  0  0  0
   15.4453   54.7724   11.4262 C   0  0  0  0  0  0  0  0  0  0  0  0
  1  2  1  0
  2  3  1  0
  3  4  2  0
  4  5  1  0
  5  6  1  0
  5  7  1  0
  5  8  1  0
  4  9  1  0
  9 10  2  0
 10 11  1  0
 11 12  2  0
 11 13  1  0
 13 14  1  0
 14 15  1  0
 15 16  2  0
 15 17  1  0
 17 18  1  0
 18 19  1  0
 19 20  1  0
 20 21  1  0
 21 22  1  0
 10  2  1  0
 22 17  1  0
M  END
$$$$
