
     RDKit          3D

 24 26  0  0  0  0  0  0  0  0999 V2000
   30.1086   82.7889   52.4554 C   0  0  0  0  0  0  0  0  0  0  0  0
   30.8853   81.6865   51.8038 C   0  0  0  0  0  0  0  0  0  0  0  0
   32.3612   81.8988   51.8569 C   0  0  0  0  0  0  0  0  0  0  0  0
   33.0564   81.7775   53.0457 C   0  0  0  0  0  0  0  0  0  0  0  0
   34.4389   81.9815   53.0461 C   0  0  0  0  0  0  0  0  0  0  0  0
   35.1308   82.2990   51.9017 C   0  0  0  0  0  0  0  0  0  0  0  0
   36.5661   82.4992   51.9334 C   0  0  0  0  0  0  0  0  0  0  0  0
   37.2545   83.6128   51.4222 C   0  0  0  0  0  0  0  0  0  0  0  0
   38.6010   83.4285   51.6480 C   0  0  0  0  0  0  0  0  0  0  0  0
   39.5985   84.3826   51.2470 C   0  0  0  0  0  0  0  0  0  0  0  0
   40.3967   85.1588   50.9347 N   0  0  0  0  0  0  0  0  0  0  0  0
   38.7081   82.2635   52.2629 N   0  0  0  0  0  0  0  0  0  0  0  0
   37.5026   81.6874   52.4452 N   0  0  0  0  0  0  0  0  0  0  0  0
   37.3001   80.4224   53.0875 C   0  0  0  0  0  0  0  0  0  0  0  0
   36.5034   79.4750   52.4803 C   0  0  0  0  0  0  0  0  0  0  0  0
   36.2667   78.2339   53.0547 C   0  0  0  0  0  0  0  0  0  0  0  0
   36.8481   77.9366   54.2750 C   0  0  0  0  0  0  0  0  0  0  0  0
   36.6038   76.6357   54.8768 C   0  0  0  0  0  0  0  0  0  0  0  0
   36.4005   75.6167   55.3666 N   0  0  0  0  0  0  0  0  0  0  0  0
   37.6366   78.8479   54.8964 C   0  0  0  0  0  0  0  0  0  0  0  0
   37.8547   80.0812   54.2970 C   0  0  0  0  0  0  0  0  0  0  0  0
   34.3834   82.4098   50.7298 C   0  0  0  0  0  0  0  0  0  0  0  0
   33.0324   82.2164   50.6984 C   0  0  0  0  0  0  0  0  0  0  0  0
   32.2405   82.3400   49.4219 C   0  0  0  0  0  0  0  0  0  0  0  0
  1  2  1  0
  2  3  1  0
  3  4  2  0
  4  5  1  0
  5  6  2  0
  6  7  1  0
  7  8  2  0
  8  9  1  0
  9 10  1  0
 10 11  3  0
  9 12  2  0
 12 13  1  0
 13 14  1  0
 14 15  2  0
 15 16  1  0
 16 17  2  0
 17 18  1  0
 18 19  3  0
 17 20  1  0
 20 21  2  0
  6 22  1  0
 22 23  2  0
 23 24  1  0
 23  3  1  0
 13  7  1  0
 21 14  1  0
M  END
$$$$
