
     RDKit          3D

 22 24  0  0  0  0  0  0  0  0999 V2000
   16.6618   93.3786   62.6017 N   0  0  0  0  0  0  0  0  0  0  0  0
   15.3655   93.8443   62.2504 C   0  0  0  0  0  0  0  0  0  0  0  0
   15.2319   94.4474   61.1560 O   0  0  0  0  0  0  0  0  0  0  0  0
   14.2480   93.6106   63.1584 C   0  0  0  0  0  0  0  0  0  0  0  0
   14.2573   92.9505   64.3286 N   0  0  0  0  0  0  0  0  0  0  0  0
   13.0467   92.9493   64.8640 N   0  0  0  0  0  0  0  0  0  0  0  0
   12.1714   93.6116   64.0717 C   0  0  0  0  0  0  0  0  0  0  0  0
   10.8314   93.8910   64.1653 C   0  0  0  0  0  0  0  0  0  0  0  0
   10.2105   94.6041   63.1704 C   0  0  0  0  0  0  0  0  0  0  0  0
   10.9377   95.0277   62.0965 C   0  0  0  0  0  0  0  0  0  0  0  0
   10.2993   95.7654   61.0657 N   0  0  0  0  0  0  0  0  0  0  0  0
   10.9791   96.5991   60.1514 C   0  0  0  0  0  0  0  0  0  0  0  0
   12.2283   96.7286   60.2960 O   0  0  0  0  0  0  0  0  0  0  0  0
   10.2894   97.3171   59.0445 C   0  0  0  0  0  0  0  0  0  0  0  0
   10.7964   98.7024   58.8959 C   0  0  0  0  0  0  0  0  0  0  0  0
   11.9635   98.9865   58.1863 C   0  0  0  0  0  0  0  0  0  0  0  0
   12.3978  100.2924   58.0742 C   0  0  0  0  0  0  0  0  0  0  0  0
   11.7129  101.3450   58.6448 C   0  0  0  0  0  0  0  0  0  0  0  0
   10.5837  101.0508   59.3290 N   0  0  0  0  0  0  0  0  0  0  0  0
   10.1384   99.7795   59.4525 C   0  0  0  0  0  0  0  0  0  0  0  0
   12.2850   94.7475   62.0012 C   0  0  0  0  0  0  0  0  0  0  0  0
   12.9449   94.0287   62.9890 C   0  0  0  0  0  0  0  0  0  0  0  0
  1  2  1  0
  2  3  2  0
  2  4  1  0
  4  5  2  0
  5  6  1  0
  6  7  1  0
  7  8  2  0
  8  9  1  0
  9 10  2  0
 10 11  1  0
 11 12  1  0
 12 13  2  0
 12 14  1  0
 14 15  1  0
 15 16  2  0
 16 17  1  0
 17 18  2  0
 18 19  1  0
 19 20  2  0
 10 21  1  0
 21 22  2  0
 22  4  1  0
 22  7  1  0
 20 15  1  0
M  END
$$$$
