
     RDKit          3D

 34 38  0  0  0  0  0  0  0  0999 V2000
   11.9341   50.1305   20.2708 C   0  0  0  0  0  0  0  0  0  0  0  0
   12.5261   50.6022   19.0818 O   0  0  0  0  0  0  0  0  0  0  0  0
   13.8826   50.3947   18.8720 C   0  0  0  0  0  0  0  0  0  0  0  0
   14.7530   50.1533   19.9098 C   0  0  0  0  0  0  0  0  0  0  0  0
   16.0901   49.9537   19.6495 C   0  0  0  0  0  0  0  0  0  0  0  0
   16.5399   49.9991   18.3413 C   0  0  0  0  0  0  0  0  0  0  0  0
   15.7000   50.2367   17.2841 C   0  0  0  0  0  0  0  0  0  0  0  0
   16.1476   50.2801   15.8821 C   0  0  0  0  0  0  0  0  0  0  0  0
   16.8757   51.4962   15.6071 N   0  0  0  0  0  0  0  0  0  0  0  0
   16.3753   52.5215   14.7824 C   0  0  0  0  0  0  0  0  0  0  0  0
   15.1526   52.6923   14.5502 O   0  0  0  0  0  0  0  0  0  0  0  0
   17.2456   53.4707   14.1307 N   0  0  0  0  0  0  0  0  0  0  0  0
   16.8531   54.1728   12.9585 C   0  0  0  0  0  0  0  0  0  0  0  0
   15.6927   54.8587   12.9179 N   0  0  0  0  0  0  0  0  0  0  0  0
   15.2787   55.5363   11.8490 C   0  0  0  0  0  0  0  0  0  0  0  0
   14.0149   56.2687   11.8170 C   0  0  0  0  0  0  0  0  0  0  0  0
   13.3434   56.6488   10.6758 C   0  0  0  0  0  0  0  0  0  0  0  0
   12.2287   57.2922   11.0507 N   0  0  0  0  0  0  0  0  0  0  0  0
   12.1544   57.3420   12.3616 N   0  0  0  0  0  0  0  0  0  0  0  0
   11.0965   57.9518   13.1803 C   0  0  0  0  0  0  0  0  0  0  0  0
   11.3277   59.4118   13.1021 C   0  0  0  0  0  0  0  0  0  0  0  0
   10.4149   60.1780   12.4118 C   0  0  0  0  0  0  0  0  0  0  0  0
   10.6006   61.5563   12.3167 C   0  0  0  0  0  0  0  0  0  0  0  0
   11.6775   62.1626   12.8990 C   0  0  0  0  0  0  0  0  0  0  0  0
   12.5912   61.3935   13.5900 C   0  0  0  0  0  0  0  0  0  0  0  0
   12.4111   60.0290   13.6867 C   0  0  0  0  0  0  0  0  0  0  0  0
   13.2352   56.7231   12.8495 C   0  0  0  0  0  0  0  0  0  0  0  0
   16.0934   55.5279   10.7261 C   0  0  0  0  0  0  0  0  0  0  0  0
   17.2719   54.8434   10.7384 N   0  0  0  0  0  0  0  0  0  0  0  0
   18.2413   54.6637    9.8177 C   0  0  0  0  0  0  0  0  0  0  0  0
   19.2304   53.8633   10.3796 C   0  0  0  0  0  0  0  0  0  0  0  0
   18.8440   53.5757   11.6201 N   0  0  0  0  0  0  0  0  0  0  0  0
   17.6653   54.1672   11.8320 C   0  0  0  0  0  0  0  0  0  0  0  0
   14.3653   50.4348   17.5608 C   0  0  0  0  0  0  0  0  0  0  0  0
  1  2  1  0
  2  3  1  0
  3  4  2  0
  4  5  1  0
  5  6  2  0
  6  7  1  0
  7  8  1  0
  8  9  1  0
  9 10  1  0
 10 11  2  0
 10 12  1  0
 12 13  1  0
 13 14  2  0
 14 15  1  0
 15 16  1  0
 16 17  1  0
 17 18  2  0
 18 19  1  0
 19 20  1  0
 20 21  1  0
 21 22  2  0
 22 23  1  0
 23 24  2  0
 24 25  1  0
 25 26  2  0
 19 27  1  0
 15 28  2  0
 28 29  1  0
 29 30  1  0
 30 31  2  0
 31 32  1  0
 32 33  2  0
  7 34  2  0
 34  3  1  0
 33 13  1  0
 27 16  2  0
 33 29  1  0
 26 21  1  0
M  END
$$$$
