
     RDKit          3D

 21 23  0  0  0  0  0  0  0  0999 V2000
   13.5582   90.7712   65.3177 C   0  0  0  0  0  0  0  0  0  0  0  0
   12.7011   91.1180   64.2527 O   0  0  0  0  0  0  0  0  0  0  0  0
   12.6666   92.4182   63.7703 C   0  0  0  0  0  0  0  0  0  0  0  0
   13.5372   93.3414   64.1913 N   0  0  0  0  0  0  0  0  0  0  0  0
   13.5420   94.6289   63.7475 C   0  0  0  0  0  0  0  0  0  0  0  0
   12.6048   95.0087   62.8151 C   0  0  0  0  0  0  0  0  0  0  0  0
   12.5477   96.3880   62.2796 C   0  0  0  0  0  0  0  0  0  0  0  0
   11.7423   96.5227   61.0957 N   0  0  0  0  0  0  0  0  0  0  0  0
   12.1119   97.2899   59.9863 C   0  0  0  0  0  0  0  0  0  0  0  0
   13.0964   96.9391   59.2853 O   0  0  0  0  0  0  0  0  0  0  0  0
   11.4060   98.4581   59.6265 O   0  0  0  0  0  0  0  0  0  0  0  0
   12.0442   99.3723   58.8010 C   0  0  1  0  0  0  0  0  0  0  0  0
   12.3486   98.8546   57.4137 C   0  0  0  0  0  0  0  0  0  0  0  0
   12.0643   99.8682   56.4516 N   0  0  0  0  0  0  0  0  0  0  0  0
   12.6120  101.1651   56.7463 C   0  0  0  0  0  0  0  0  0  0  0  0
   12.1665  101.6921   58.0931 C   0  0  0  0  0  0  0  0  0  0  0  0
   11.2242  100.6558   58.6653 C   0  0  0  0  0  0  0  0  0  0  0  0
   10.1050  100.4677   57.6526 C   0  0  0  0  0  0  0  0  0  0  0  0
   10.6292   99.9786   56.3191 C   0  0  0  0  0  0  0  0  0  0  0  0
   11.7002   94.0632   62.3727 C   0  0  0  0  0  0  0  0  0  0  0  0
   11.7448   92.8181   62.8451 N   0  0  0  0  0  0  0  0  0  0  0  0
  1  2  1  0
  2  3  1  0
  3  4  2  0
  4  5  1  0
  5  6  2  0
  6  7  1  0
  7  8  1  0
  8  9  1  0
  9 10  2  0
  9 11  1  0
 12 11  1  1
 12 13  1  0
 13 14  1  0
 14 15  1  0
 15 16  1  0
 16 17  1  0
 17 18  1  0
 18 19  1  0
  6 20  1  0
 20 21  2  0
 21  3  1  0
 17 12  1  0
 19 14  1  0
M  END
$$$$
