
     RDKit          3D

 25 28  0  0  0  0  0  0  0  0999 V2000
   15.5942   51.3444   15.6825 C   0  0  0  0  0  0  0  0  0  0  0  0
   15.7337   52.6244   15.1452 O   0  0  0  0  0  0  0  0  0  0  0  0
   16.0781   52.8192   13.8175 C   0  0  0  0  0  0  0  0  0  0  0  0
   16.5851   51.7964   13.0352 C   0  0  0  0  0  0  0  0  0  0  0  0
   16.9216   52.0172   11.7106 C   0  0  0  0  0  0  0  0  0  0  0  0
   16.7360   53.2903   11.1924 C   0  0  0  0  0  0  0  0  0  0  0  0
   16.2255   54.3135   11.9859 C   0  0  0  0  0  0  0  0  0  0  0  0
   15.8918   54.0864   13.3064 C   0  0  0  0  0  0  0  0  0  0  0  0
   15.3589   55.1510   14.1408 C   0  0  0  0  0  0  0  0  0  0  0  0
   15.9769   56.4406   13.9694 N   0  0  0  0  0  0  0  0  0  0  0  0
   16.3286   57.0009   15.2613 C   0  0  0  0  0  0  0  0  0  0  0  0
   16.8371   58.3898   15.0565 C   0  0  0  0  0  0  0  0  0  0  0  0
   16.9333   58.7179   13.5637 C   0  0  0  0  0  0  0  0  0  0  0  0
   15.5572   58.6542   12.9912 C   0  0  0  0  0  0  0  0  0  0  0  0
   14.6859   59.8058   13.3710 C   0  0  0  0  0  0  0  0  0  0  0  0
   13.3836   59.6772   12.6726 C   0  0  0  0  0  0  0  0  0  0  0  0
   13.1441   58.5434   11.9266 C   0  0  0  0  0  0  0  0  0  0  0  0
   11.9281   58.4417   11.2884 C   0  0  0  0  0  0  0  0  0  0  0  0
   10.9728   59.3855   11.3575 N   0  0  0  0  0  0  0  0  0  0  0  0
   11.1963   60.4924   12.0809 C   0  0  0  0  0  0  0  0  0  0  0  0
   12.3984   60.6459   12.7412 C   0  0  0  0  0  0  0  0  0  0  0  0
   14.9712   57.3178   13.3947 C   0  0  0  0  0  0  0  0  0  0  0  0
   16.1778   55.4336   11.1440 O   0  0  0  0  0  0  0  0  0  0  0  0
   17.1244   55.2060   10.1231 C   0  0  0  0  0  0  0  0  0  0  0  0
   16.9789   53.7943    9.9280 O   0  0  0  0  0  0  0  0  0  0  0  0
  1  2  1  0
  2  3  1  0
  3  4  2  0
  4  5  1  0
  5  6  2  0
  6  7  1  0
  7  8  2  0
  8  9  1  0
  9 10  1  0
 10 11  1  0
 11 12  1  0
 12 13  1  0
 13 14  1  0
 14 15  1  0
 15 16  1  0
 16 17  2  0
 17 18  1  0
 18 19  2  0
 19 20  1  0
 20 21  2  0
 14 22  1  0
  7 23  1  0
 23 24  1  0
 24 25  1  0
  8  3  1  0
 22 10  1  0
 25  6  1  0
 21 16  1  0
M  END
$$$$
