
     RDKit          3D

 29 31  0  0  0  0  0  0  0  0999 V2000
   43.8163   78.3608   50.7421 C   0  0  0  0  0  0  0  0  0  0  0  0
   42.5113   78.3738   51.1544 O   0  0  0  0  0  0  0  0  0  0  0  0
   41.9838   79.6474   51.2639 C   0  0  0  0  0  0  0  0  0  0  0  0
   41.1264   79.7799   52.4640 C   0  0  0  0  0  0  0  0  0  0  0  0
   40.5280   81.1281   52.6307 N   0  0  0  0  0  0  0  0  0  0  0  0
   41.1694   81.9498   53.5547 C   0  0  0  0  0  0  0  0  0  0  0  0
   42.0193   81.5158   54.3471 O   0  0  0  0  0  0  0  0  0  0  0  0
   40.8805   83.3733   53.6435 C   0  0  0  0  0  0  0  0  0  0  0  0
   41.7622   84.4366   53.5635 C   0  0  0  0  0  0  0  0  0  0  0  0
   41.0704   85.6201   53.6939 C   0  0  0  0  0  0  0  0  0  0  0  0
   39.7576   85.2287   53.8533 C   0  0  0  0  0  0  0  0  0  0  0  0
   39.6808   83.9261   53.8199 O   0  0  0  0  0  0  0  0  0  0  0  0
   39.3165   81.3934   51.9045 C   0  0  0  0  0  0  0  0  0  0  0  0
   39.4073   80.7978   50.5147 C   0  0  0  0  0  0  0  0  0  0  0  0
   39.6101   79.5716   50.4375 O   0  0  0  0  0  0  0  0  0  0  0  0
   39.2751   81.5578   49.3357 N   0  0  0  0  0  0  0  0  0  0  0  0
   39.3399   80.9291   48.0325 C   0  0  0  0  0  0  0  0  0  0  0  0
   38.5942   81.7189   47.0111 C   0  0  0  0  0  0  0  0  0  0  0  0
   37.8034   82.8160   47.2817 C   0  0  0  0  0  0  0  0  0  0  0  0
   37.2779   83.2787   46.0748 C   0  0  0  0  0  0  0  0  0  0  0  0
   37.7954   82.4144   45.1327 C   0  0  0  0  0  0  0  0  0  0  0  0
   38.5621   81.5121   45.7115 O   0  0  0  0  0  0  0  0  0  0  0  0
   38.0341   81.0116   52.5161 C   0  0  0  0  0  0  0  0  0  0  0  0
   37.9311   79.9007   53.3629 C   0  0  0  0  0  0  0  0  0  0  0  0
   36.7692   79.4781   53.9613 C   0  0  0  0  0  0  0  0  0  0  0  0
   35.6174   80.1934   53.7134 C   0  0  0  0  0  0  0  0  0  0  0  0
   35.6551   81.2987   52.8831 C   0  0  0  0  0  0  0  0  0  0  0  0
   36.8424   81.6939   52.2990 C   0  0  0  0  0  0  0  0  0  0  0  0
   36.8212   83.0701   51.1919 Cl  0  0  0  0  0  0  0  0  0  0  0  0
  1  2  1  0
  2  3  1  0
  3  4  1  0
  4  5  1  0
  5  6  1  0
  6  7  2  0
  6  8  1  0
  8  9  2  0
  9 10  1  0
 10 11  2  0
 11 12  1  0
  5 13  1  0
 13 14  1  0
 14 15  2  0
 14 16  1  0
 16 17  1  0
 17 18  1  0
 18 19  2  0
 19 20  1  0
 20 21  2  0
 21 22  1  0
 13 23  1  0
 23 24  2  0
 24 25  1  0
 25 26  2  0
 26 27  1  0
 27 28  2  0
 28 29  1  0
 12  8  1  0
 22 18  1  0
 28 23  1  0
M  END
$$$$
