
     RDKit          3D

 20 21  0  0  0  0  0  0  0  0999 V2000
   13.4209   56.1326   13.5141 C   0  0  0  0  0  0  0  0  0  0  0  0
   14.5942   55.7324   13.0528 O   0  0  0  0  0  0  0  0  0  0  0  0
   15.5087   54.7625   13.0651 C   0  0  0  0  0  0  0  0  0  0  0  0
   15.5114   53.7304   14.0158 C   0  0  0  0  0  0  0  0  0  0  0  0
   16.4505   52.7161   14.0500 C   0  0  0  0  0  0  0  0  0  0  0  0
   16.3865   51.6874   15.0979 C   0  0  0  0  0  0  0  0  0  0  0  0
   17.5395   50.9881   15.4538 C   0  0  0  0  0  0  0  0  0  0  0  0
   17.4230   50.0375   16.4362 C   0  0  0  0  0  0  0  0  0  0  0  0
   16.2292   49.7430   17.0832 C   0  0  0  0  0  0  0  0  0  0  0  0
   16.2367   48.6945   18.0914 C   0  0  0  0  0  0  0  0  0  0  0  0
   16.2405   47.8627   18.8931 N   0  0  0  0  0  0  0  0  0  0  0  0
   15.0939   50.4362   16.7287 C   0  0  0  0  0  0  0  0  0  0  0  0
   13.9290   50.1739   17.3651 F   0  0  0  0  0  0  0  0  0  0  0  0
   15.2201   51.3874   15.7440 C   0  0  0  0  0  0  0  0  0  0  0  0
   17.4335   52.7313   13.0890 C   0  0  0  0  0  0  0  0  0  0  0  0
   17.4453   53.7349   12.1501 C   0  0  0  0  0  0  0  0  0  0  0  0
   16.5379   54.7484   12.0895 C   0  0  0  0  0  0  0  0  0  0  0  0
   16.6325   55.8205   11.0595 C   0  0  0  0  0  0  0  0  0  0  0  0
   16.8635   57.1242   11.7496 C   0  0  0  0  0  0  0  0  0  0  0  0
   17.0228   58.1170   12.2835 N   0  0  0  0  0  0  0  0  0  0  0  0
  1  2  1  0
  2  3  1  0
  3  4  2  0
  4  5  1  0
  5  6  1  0
  6  7  2  0
  7  8  1  0
  8  9  2  0
  9 10  1  0
 10 11  3  0
  9 12  1  0
 12 13  1  0
 12 14  2  0
  5 15  2  0
 15 16  1  0
 16 17  2  0
 17 18  1  0
 18 19  1  0
 19 20  3  0
 17  3  1  0
 14  6  1  0
M  END
$$$$
