
     RDKit          3D

 19 21  0  0  0  0  0  0  0  0999 V2000
   -7.1143   61.4348   29.9503 O   0  0  0  0  0  0  0  0  0  0  0  0
   -6.6979   60.4963   30.6681 C   0  0  0  0  0  0  0  0  0  0  0  0
   -5.3299   60.4359   30.9293 N   0  0  0  0  0  0  0  0  0  0  0  0
   -4.3114   61.1818   30.2333 C   0  0  0  0  0  0  0  0  0  0  0  0
   -4.1174   62.5748   30.7183 C   0  0  0  0  0  0  0  0  0  0  0  0
   -3.8271   62.7155   32.1744 C   0  0  0  0  0  0  0  0  0  0  0  0
   -3.0000   61.2515   32.8588 S   0  0  0  0  0  0  0  0  0  0  0  0
   -2.3534   60.3451   31.4373 C   0  0  0  0  0  0  0  0  0  0  0  0
   -1.1746   59.6222   31.5303 C   0  0  0  0  0  0  0  0  0  0  0  0
   -0.7352   58.9531   30.4121 C   0  0  0  0  0  0  0  0  0  0  0  0
   -1.4542   59.0079   29.2415 C   0  0  0  0  0  0  0  0  0  0  0  0
   -2.6282   59.7350   29.1699 C   0  0  0  0  0  0  0  0  0  0  0  0
   -3.0668   60.4002   30.2783 C   0  0  0  0  0  0  0  0  0  0  0  0
   -7.6848   59.5357   31.1764 C   0  0  0  0  0  0  0  0  0  0  0  0
   -9.0342   59.7704   30.9890 C   0  0  0  0  0  0  0  0  0  0  0  0
   -9.9509   58.8707   31.4654 C   0  0  0  0  0  0  0  0  0  0  0  0
   -9.5842   57.7227   32.1344 C   0  0  0  0  0  0  0  0  0  0  0  0
   -8.2427   57.4803   32.3259 C   0  0  0  0  0  0  0  0  0  0  0  0
   -7.3066   58.3946   31.8419 C   0  0  0  0  0  0  0  0  0  0  0  0
  1  2  2  0
  2  3  1  0
  3  4  1  0
  4  5  1  0
  5  6  1  0
  6  7  1  0
  7  8  1  0
  8  9  2  0
  9 10  1  0
 10 11  2  0
 11 12  1  0
 12 13  2  0
  2 14  1  0
 14 15  2  0
 15 16  1  0
 16 17  2  0
 17 18  1  0
 18 19  2  0
 13  4  1  0
 19 14  1  0
 13  8  1  0
M  END
$$$$
