
     RDKit          3D

 23 25  0  0  0  0  0  0  0  0999 V2000
   11.6296   46.5816   18.6791 C   0  0  0  0  0  0  0  0  0  0  0  0
   12.1067   47.8382   19.0587 O   0  0  0  0  0  0  0  0  0  0  0  0
   13.1330   48.4890   18.3940 C   0  0  0  0  0  0  0  0  0  0  0  0
   13.0731   49.8311   18.0629 C   0  0  0  0  0  0  0  0  0  0  0  0
   14.1151   50.4721   17.3933 C   0  0  0  0  0  0  0  0  0  0  0  0
   15.2376   49.7427   17.0527 C   0  0  0  0  0  0  0  0  0  0  0  0
   15.3173   48.3963   17.3755 C   0  0  0  0  0  0  0  0  0  0  0  0
   16.5412   47.9684   16.9055 C   0  0  0  0  0  0  0  0  0  0  0  0
   17.1592   49.0447   16.3218 C   0  0  0  0  0  0  0  0  0  0  0  0
   16.3597   50.1121   16.4176 N   0  0  0  0  0  0  0  0  0  0  0  0
   16.6652   51.4233   15.9201 C   0  0  0  0  0  0  0  0  0  0  0  0
   18.0451   51.5046   15.3714 C   0  0  0  0  0  0  0  0  0  0  0  0
   18.7371   50.4588   15.3446 O   0  0  0  0  0  0  0  0  0  0  0  0
   18.6003   52.7041   14.8839 N   0  0  0  0  0  0  0  0  0  0  0  0
   19.9164   52.7944   14.2846 C   0  0  0  0  0  0  0  0  0  0  0  0
   17.8398   53.9242   14.9733 C   0  0  0  0  0  0  0  0  0  0  0  0
   17.4283   54.4156   13.6204 C   0  0  0  0  0  0  0  0  0  0  0  0
   16.6574   53.6783   12.7477 C   0  0  0  0  0  0  0  0  0  0  0  0
   16.4790   54.4411   11.6103 C   0  0  0  0  0  0  0  0  0  0  0  0
   17.1567   55.6207   11.8448 C   0  0  0  0  0  0  0  0  0  0  0  0
   17.2523   56.7780   10.8848 C   0  0  0  0  0  0  0  0  0  0  0  0
   17.6935   55.5452   13.0427 O   0  0  0  0  0  0  0  0  0  0  0  0
   14.2696   47.7953   18.0370 C   0  0  0  0  0  0  0  0  0  0  0  0
  1  2  1  0
  2  3  1  0
  3  4  2  0
  4  5  1  0
  5  6  2  0
  6  7  1  0
  7  8  1  0
  8  9  2  0
  9 10  1  0
 10 11  1  0
 11 12  1  0
 12 13  2  0
 12 14  1  0
 14 15  1  0
 14 16  1  0
 16 17  1  0
 17 18  2  0
 18 19  1  0
 19 20  2  0
 20 21  1  0
 20 22  1  0
  7 23  2  0
 23  3  1  0
 10  6  1  0
 22 17  1  0
M  END
$$$$
