
     RDKit          3D

 32 36  0  0  0  0  0  0  0  0999 V2000
   39.8172   78.7260   53.7528 O   0  0  0  0  0  0  0  0  0  0  0  0
   40.0129   79.9363   53.8211 C   0  0  0  0  0  0  0  0  0  0  0  0
   39.8812   80.8112   52.6269 C   0  0  0  0  0  0  0  0  0  0  0  0
   38.4417   81.1980   52.4824 C   0  0  0  0  0  0  0  0  0  0  0  0
   37.9652   81.0098   51.0697 C   0  0  1  0  0  0  0  0  0  0  0  0
   37.1377   82.2256   50.6505 C   0  0  2  0  0  0  0  0  0  0  0  0
   35.7111   82.0315   50.8216 C   0  0  0  0  0  0  0  0  0  0  0  0
   35.2920   80.8553   50.9768 O   0  0  0  0  0  0  0  0  0  0  0  0
   34.7397   83.0738   50.8282 N   0  0  0  0  0  0  0  0  0  0  0  0
   33.3802   82.7597   50.9908 C   0  0  0  0  0  0  0  0  0  0  0  0
   32.7197   82.0578   50.0195 C   0  0  0  0  0  0  0  0  0  0  0  0
   31.3604   81.7360   50.1654 C   0  0  0  0  0  0  0  0  0  0  0  0
   30.5455   80.8423   48.9147 Cl  0  0  0  0  0  0  0  0  0  0  0  0
   30.7157   82.1509   51.3188 C   0  0  0  0  0  0  0  0  0  0  0  0
   31.3534   82.8518   52.3008 C   0  0  0  0  0  0  0  0  0  0  0  0
   30.4721   83.3397   53.7259 Cl  0  0  0  0  0  0  0  0  0  0  0  0
   32.7040   83.1498   52.1144 C   0  0  0  0  0  0  0  0  0  0  0  0
   37.6134   82.4223   49.2506 C   0  0  2  0  0  0  0  0  0  0  0  0
   37.5247   81.1476   48.4454 C   0  0  0  0  0  0  0  0  0  0  0  0
   38.4685   80.2951   48.8462 C   0  0  0  0  0  0  0  0  0  0  0  0
   39.0769   80.9406   50.0658 C   0  0  1  0  0  0  0  0  0  0  0  0
   39.1180   82.3601   49.5624 C   0  0  0  0  0  0  0  0  0  0  0  0
   40.1214   82.9245   48.7179 C   0  0  0  0  0  0  0  0  0  0  0  0
   39.8429   83.4429   50.1690 C   0  0  0  0  0  0  0  0  0  0  0  0
   40.3723   80.5552   55.0369 N   0  0  0  0  0  0  0  0  0  0  0  0
   40.3819   79.8238   56.2683 C   0  0  0  0  0  0  0  0  0  0  0  0
   41.0093   80.6351   57.3438 C   0  0  0  0  0  0  0  0  0  0  0  0
   40.9359   82.0246   57.1851 C   0  0  0  0  0  0  0  0  0  0  0  0
   41.4804   82.8221   58.1486 C   0  0  0  0  0  0  0  0  0  0  0  0
   42.1027   82.3286   59.2767 C   0  0  0  0  0  0  0  0  0  0  0  0
   42.1529   80.9580   59.3940 C   0  0  0  0  0  0  0  0  0  0  0  0
   41.6138   80.1064   58.4416 C   0  0  0  0  0  0  0  0  0  0  0  0
  1  2  2  0
  2  3  1  0
  3  4  1  0
  5  4  1  1
  5  6  1  0
  6  7  1  6
  7  8  2  0
  7  9  1  0
  9 10  1  0
 10 11  2  0
 11 12  1  0
 12 13  1  0
 12 14  2  0
 14 15  1  0
 15 16  1  0
 15 17  2  0
  6 18  1  0
 18 19  1  6
 19 20  2  0
 21 20  1  6
 21 22  1  0
 22 23  1  0
 23 24  1  0
  2 25  1  0
 25 26  1  0
 26 27  1  0
 27 28  2  0
 28 29  1  0
 29 30  2  0
 30 31  1  0
 31 32  2  0
 21  5  1  0
 24 22  1  0
 32 27  1  0
 17 10  1  0
 22 18  1  0
M  END
$$$$
