
     RDKit          3D

 21 24  0  0  0  0  0  0  0  0999 V2000
    9.8437   94.6817   63.8335 O   0  0  0  0  0  0  0  0  0  0  0  0
   10.8024   95.1156   63.1325 C   0  0  0  0  0  0  0  0  0  0  0  0
   10.6223   96.1871   62.2287 C   0  0  0  0  0  0  0  0  0  0  0  0
   11.6594   96.6592   61.4678 C   0  0  0  0  0  0  0  0  0  0  0  0
   11.5202   97.7584   60.5258 C   0  0  0  0  0  0  0  0  0  0  0  0
   10.4700   98.6619   60.7480 C   0  0  0  0  0  0  0  0  0  0  0  0
   10.2428   99.7350   59.9256 C   0  0  0  0  0  0  0  0  0  0  0  0
   11.0503   99.9634   58.8393 C   0  0  0  0  0  0  0  0  0  0  0  0
   10.8404  101.0332   58.0018 F   0  0  0  0  0  0  0  0  0  0  0  0
   12.0772   99.0903   58.6119 C   0  0  0  0  0  0  0  0  0  0  0  0
   12.3062   97.9979   59.4515 C   0  0  0  0  0  0  0  0  0  0  0  0
   13.3363   97.1842   59.1617 F   0  0  0  0  0  0  0  0  0  0  0  0
   12.8374   96.0702   61.6142 O   0  0  0  0  0  0  0  0  0  0  0  0
   13.1069   95.1104   62.3885 C   0  0  0  0  0  0  0  0  0  0  0  0
   12.0055   94.5730   63.2289 C   0  0  0  0  0  0  0  0  0  0  0  0
   12.5225   93.4659   64.0547 C   0  0  0  0  0  0  0  0  0  0  0  0
   13.0445   92.3459   63.1375 C   0  0  0  0  0  0  0  0  0  0  0  0
   14.2875   92.9385   62.3062 C   0  0  0  0  0  0  0  0  0  0  0  0
   14.1465   94.2828   62.7940 N   0  0  0  0  0  0  0  0  0  0  0  0
   14.8447   94.4966   64.0349 C   0  0  0  0  0  0  0  0  0  0  0  0
   13.6425   93.9981   64.9680 C   0  0  0  0  0  0  0  0  0  0  0  0
  1  2  2  0
  2  3  1  0
  3  4  2  0
  4  5  1  0
  5  6  2  0
  6  7  1  0
  7  8  2  0
  8  9  1  0
  8 10  1  0
 10 11  2  0
 11 12  1  0
  4 13  1  0
 13 14  1  0
 14 15  2  0
 15 16  1  0
 16 17  1  0
 17 18  1  0
 18 19  1  0
 19 20  1  0
 20 21  1  0
 15  2  1  0
 21 16  1  0
 11  5  1  0
 19 14  1  0
M  END
$$$$
