
     RDKit          3D

 19 20  0  0  0  0  0  0  0  0999 V2000
   15.4527   47.2215   18.9488 C   0  0  0  0  0  0  0  0  0  0  0  0
   14.8282   48.5176   18.4670 C   0  0  0  0  0  0  0  0  0  0  0  0
   13.3685   48.4634   18.7806 C   0  0  0  0  0  0  0  0  0  0  0  0
   15.1071   48.6682   16.9896 C   0  0  0  0  0  0  0  0  0  0  0  0
   16.2852   49.5620   16.7973 C   0  0  0  0  0  0  0  0  0  0  0  0
   15.9335   50.8378   16.1254 C   0  0  0  0  0  0  0  0  0  0  0  0
   14.7940   51.3810   16.2741 O   0  0  0  0  0  0  0  0  0  0  0  0
   16.8403   51.5313   15.2781 N   0  0  0  0  0  0  0  0  0  0  0  0
   16.4877   52.7527   14.6319 C   0  0  0  0  0  0  0  0  0  0  0  0
   17.0902   53.1980   13.4785 C   0  0  0  0  0  0  0  0  0  0  0  0
   16.6906   54.3919   12.9161 C   0  0  0  0  0  0  0  0  0  0  0  0
   15.6956   55.1789   13.4638 C   0  0  0  0  0  0  0  0  0  0  0  0
   15.3018   56.4041   12.8662 N   0  0  0  0  0  0  0  0  0  0  0  0
   15.8613   56.9591   11.7788 C   0  0  0  0  0  0  0  0  0  0  0  0
   15.2106   58.1545   11.4906 C   0  0  0  0  0  0  0  0  0  0  0  0
   14.2589   58.2966   12.4241 N   0  0  0  0  0  0  0  0  0  0  0  0
   14.3249   57.2319   13.2492 C   0  0  0  0  0  0  0  0  0  0  0  0
   15.1241   54.7139   14.5960 N   0  0  0  0  0  0  0  0  0  0  0  0
   15.4917   53.5531   15.1691 C   0  0  0  0  0  0  0  0  0  0  0  0
  1  2  1  0
  2  3  1  0
  2  4  1  0
  4  5  1  0
  5  6  1  0
  6  7  2  0
  6  8  1  0
  8  9  1  0
  9 10  2  0
 10 11  1  0
 11 12  2  0
 12 13  1  0
 13 14  1  0
 14 15  2  0
 15 16  1  0
 16 17  2  0
 12 18  1  0
 18 19  2  0
 19  9  1  0
 17 13  1  0
M  END
$$$$
