
     RDKit          3D

 25 28  0  0  0  0  0  0  0  0999 V2000
   17.5405   53.1495   13.5432 C   0  0  0  0  0  0  0  0  0  0  0  0
   16.4129   53.5293   14.4755 C   0  0  0  0  0  0  0  0  0  0  0  0
   15.5599   54.6201   13.9210 C   0  0  0  0  0  0  0  0  0  0  0  0
   14.3321   54.3741   13.3219 C   0  0  0  0  0  0  0  0  0  0  0  0
   13.5504   55.3934   12.8146 C   0  0  0  0  0  0  0  0  0  0  0  0
   13.9772   56.7045   12.8902 C   0  0  0  0  0  0  0  0  0  0  0  0
   13.1980   57.8159   12.3590 C   0  0  0  0  0  0  0  0  0  0  0  0
   13.1145   59.1193   12.8039 C   0  0  0  0  0  0  0  0  0  0  0  0
   12.2367   59.8087   11.9870 C   0  0  0  0  0  0  0  0  0  0  0  0
   11.8777   61.1736   12.1309 N   0  0  0  0  0  0  0  0  0  0  0  0
   12.7818   62.2045   12.4143 C   0  0  0  0  0  0  0  0  0  0  0  0
   13.9458   61.8676   12.7919 O   0  0  0  0  0  0  0  0  0  0  0  0
   12.5198   63.6358   12.3209 C   0  0  0  0  0  0  0  0  0  0  0  0
   13.1533   64.6238   13.0524 C   0  0  0  0  0  0  0  0  0  0  0  0
   12.6646   65.8217   12.7100 N   0  0  0  0  0  0  0  0  0  0  0  0
   11.7395   65.6368   11.7821 N   0  0  0  0  0  0  0  0  0  0  0  0
   10.9353   66.4757   11.0929 C   0  0  0  0  0  0  0  0  0  0  0  0
   10.0153   66.0689   10.1502 C   0  0  0  0  0  0  0  0  0  0  0  0
    9.9364   64.6967    9.9177 C   0  0  0  0  0  0  0  0  0  0  0  0
   10.7396   63.8598   10.6057 N   0  0  0  0  0  0  0  0  0  0  0  0
   11.6219   64.3083   11.5161 C   0  0  0  0  0  0  0  0  0  0  0  0
   11.8080   58.9261   11.0741 N   0  0  0  0  0  0  0  0  0  0  0  0
   12.3716   57.7521   11.2896 N   0  0  0  0  0  0  0  0  0  0  0  0
   15.1884   56.9595   13.4788 C   0  0  0  0  0  0  0  0  0  0  0  0
   15.9461   55.9475   13.9746 C   0  0  0  0  0  0  0  0  0  0  0  0
  1  2  1  0
  2  3  1  0
  3  4  2  0
  4  5  1  0
  5  6  2  0
  6  7  1  0
  7  8  1  0
  8  9  2  0
  9 10  1  0
 10 11  1  0
 11 12  2  0
 11 13  1  0
 13 14  1  0
 14 15  2  0
 15 16  1  0
 16 17  1  0
 17 18  2  0
 18 19  1  0
 19 20  2  0
 20 21  1  0
  9 22  1  0
 22 23  1  0
  6 24  1  0
 24 25  2  0
 25  3  1  0
 23  7  2  0
 21 13  2  0
 21 16  1  0
M  END
$$$$
