
     RDKit          3D

 22 23  0  0  0  0  0  0  0  0999 V2000
   36.7700   81.1623   47.2463 C   0  0  0  0  0  0  0  0  0  0  0  0
   37.6537   80.4661   48.2470 C   0  0  0  0  0  0  0  0  0  0  0  0
   38.5052   79.4801   47.7825 C   0  0  0  0  0  0  0  0  0  0  0  0
   39.3415   78.8013   48.6411 C   0  0  0  0  0  0  0  0  0  0  0  0
   39.2933   79.1458   49.9770 C   0  0  0  0  0  0  0  0  0  0  0  0
   38.4380   80.1387   50.4540 C   0  0  0  0  0  0  0  0  0  0  0  0
   37.6105   80.8052   49.5812 C   0  0  0  0  0  0  0  0  0  0  0  0
   36.7185   81.8467   50.0961 C   0  0  0  0  0  0  0  0  0  0  0  0
   37.0676   82.2488   51.4933 C   0  0  0  0  0  0  0  0  0  0  0  0
   38.2603   82.0631   51.8582 O   0  0  0  0  0  0  0  0  0  0  0  0
   36.1170   82.8088   52.3668 N   0  0  0  0  0  0  0  0  0  0  0  0
   36.5822   83.4308   53.6036 C   0  0  0  0  0  0  0  0  0  0  0  0
   34.7203   82.7951   52.0964 C   0  0  0  0  0  0  0  0  0  0  0  0
   34.1359   83.6137   51.1570 C   0  0  0  0  0  0  0  0  0  0  0  0
   32.7873   83.5769   50.9170 C   0  0  0  0  0  0  0  0  0  0  0  0
   31.9296   82.7083   51.6103 C   0  0  0  0  0  0  0  0  0  0  0  0
   30.6109   82.7376   51.3097 O   0  0  0  0  0  0  0  0  0  0  0  0
   29.7542   81.6487   51.3596 C   0  0  0  0  0  0  0  0  0  0  0  0
   30.3581   80.6775   52.1832 F   0  0  0  0  0  0  0  0  0  0  0  0
   28.5305   82.0100   51.9375 F   0  0  0  0  0  0  0  0  0  0  0  0
   32.5019   81.8945   52.5425 C   0  0  0  0  0  0  0  0  0  0  0  0
   33.8696   81.9483   52.7695 C   0  0  0  0  0  0  0  0  0  0  0  0
  1  2  1  0
  2  3  2  0
  3  4  1  0
  4  5  2  0
  5  6  1  0
  6  7  2  0
  7  8  1  0
  8  9  1  0
  9 10  2  0
  9 11  1  0
 11 12  1  0
 11 13  1  0
 13 14  2  0
 14 15  1  0
 15 16  2  0
 16 17  1  0
 17 18  1  0
 18 19  1  0
 18 20  1  0
 16 21  1  0
 21 22  2  0
  7  2  1  0
 22 13  1  0
M  END
$$$$
