
     RDKit          3D

 26 28  0  0  0  0  0  0  0  0999 V2000
   12.9909   46.4484   20.3843 C   0  0  0  0  0  0  0  0  0  0  0  0
   13.2605   47.8152   20.4209 O   0  0  0  0  0  0  0  0  0  0  0  0
   14.0632   48.4680   19.4865 C   0  0  0  0  0  0  0  0  0  0  0  0
   14.9481   49.4579   19.8604 C   0  0  0  0  0  0  0  0  0  0  0  0
   15.7363   50.0956   18.9249 C   0  0  0  0  0  0  0  0  0  0  0  0
   15.6755   49.7716   17.5689 C   0  0  0  0  0  0  0  0  0  0  0  0
   16.5472   50.4912   16.6046 C   0  0  0  0  0  0  0  0  0  0  0  0
   15.7988   51.6091   15.9072 C   0  0  0  0  0  0  0  0  0  0  0  0
   16.6447   52.4645   15.1208 N   0  0  0  0  0  0  0  0  0  0  0  0
   16.4478   53.8637   15.0279 C   0  0  0  0  0  0  0  0  0  0  0  0
   15.3571   54.3496   15.4157 O   0  0  0  0  0  0  0  0  0  0  0  0
   17.5242   54.7597   14.4743 C   0  0  0  0  0  0  0  0  0  0  0  0
   17.1397   55.1008   13.0583 C   0  0  0  0  0  0  0  0  0  0  0  0
   16.4421   56.3952   13.0321 C   0  0  0  0  0  0  0  0  0  0  0  0
   15.3222   56.4986   12.2825 N   0  0  0  0  0  0  0  0  0  0  0  0
   14.6397   57.6565   12.2181 C   0  0  0  0  0  0  0  0  0  0  0  0
   13.4873   57.7856   11.4549 C   0  0  0  0  0  0  0  0  0  0  0  0
   12.7942   58.9701   11.3924 C   0  0  0  0  0  0  0  0  0  0  0  0
   13.3038   60.0289   12.1297 C   0  0  0  0  0  0  0  0  0  0  0  0
   14.4435   59.9300   12.8948 C   0  0  0  0  0  0  0  0  0  0  0  0
   15.1320   58.7255   12.9468 C   0  0  0  0  0  0  0  0  0  0  0  0
   16.2755   58.5922   13.7022 C   0  0  0  0  0  0  0  0  0  0  0  0
   16.7172   59.5742   14.3642 O   0  0  0  0  0  0  0  0  0  0  0  0
   16.9298   57.4146   13.7399 N   0  0  0  0  0  0  0  0  0  0  0  0
   14.7899   48.7813   17.1969 C   0  0  0  0  0  0  0  0  0  0  0  0
   13.9969   48.1418   18.1482 C   0  0  0  0  0  0  0  0  0  0  0  0
  1  2  1  0
  2  3  1  0
  3  4  2  0
  4  5  1  0
  5  6  2  0
  6  7  1  0
  7  8  1  0
  8  9  1  0
  9 10  1  0
 10 11  2  0
 10 12  1  0
 12 13  1  0
 13 14  1  0
 14 15  2  0
 15 16  1  0
 16 17  2  0
 17 18  1  0
 18 19  2  0
 19 20  1  0
 20 21  2  0
 21 22  1  0
 22 23  2  0
 22 24  1  0
  6 25  1  0
 25 26  2  0
 26  3  1  0
 24 14  1  0
 21 16  1  0
M  END
$$$$
