
     RDKit          3D

 25 28  0  0  0  0  0  0  0  0999 V2000
   30.5771   81.0918   51.6195 C   0  0  0  0  0  0  0  0  0  0  0  0
   31.5293   80.9177   52.5945 C   0  0  0  0  0  0  0  0  0  0  0  0
   32.7391   81.5676   52.4969 C   0  0  0  0  0  0  0  0  0  0  0  0
   33.0373   82.4044   51.4348 C   0  0  0  0  0  0  0  0  0  0  0  0
   34.3385   83.0957   51.3419 C   0  0  0  0  0  0  0  0  0  0  0  0
   35.3411   82.3018   50.7137 N   0  0  0  0  0  0  0  0  0  0  0  0
   35.7397   82.8194   49.4507 C   0  0  0  0  0  0  0  0  0  0  0  0
   36.8716   82.1041   48.8062 C   0  0  0  0  0  0  0  0  0  0  0  0
   37.5278   81.1200   49.6112 N   0  0  0  0  0  0  0  0  0  0  0  0
   38.4557   80.2418   48.9799 C   0  0  0  0  0  0  0  0  0  0  0  0
   39.0791   79.2499   49.6480 N   0  0  0  0  0  0  0  0  0  0  0  0
   39.9591   78.4002   49.0956 C   0  0  0  0  0  0  0  0  0  0  0  0
   40.2523   78.5412   47.7588 C   0  0  0  0  0  0  0  0  0  0  0  0
   39.6319   79.5441   47.0510 C   0  0  0  0  0  0  0  0  0  0  0  0
   38.7614   80.3572   47.6723 N   0  0  0  0  0  0  0  0  0  0  0  0
   37.3173   80.9491   51.0311 C   0  0  0  0  0  0  0  0  0  0  0  0
   36.4250   82.0024   51.6133 C   0  0  0  0  0  0  0  0  0  0  0  0
   37.2175   83.2322   51.9911 C   0  0  0  0  0  0  0  0  0  0  0  0
   38.3327   82.9171   52.8606 N   0  0  0  0  0  0  0  0  0  0  0  0
   39.5645   82.5436   52.4198 C   0  0  0  0  0  0  0  0  0  0  0  0
   40.3972   82.3129   53.4931 C   0  0  0  0  0  0  0  0  0  0  0  0
   39.6278   82.5593   54.6072 C   0  0  0  0  0  0  0  0  0  0  0  0
   38.4296   82.9089   54.1682 N   0  0  0  0  0  0  0  0  0  0  0  0
   32.0661   82.5595   50.4748 C   0  0  0  0  0  0  0  0  0  0  0  0
   30.8398   81.9193   50.5451 C   0  0  0  0  0  0  0  0  0  0  0  0
  1  2  2  0
  2  3  1  0
  3  4  2  0
  4  5  1  0
  5  6  1  0
  6  7  1  0
  7  8  1  0
  8  9  1  0
  9 10  1  0
 10 11  2  0
 11 12  1  0
 12 13  2  0
 13 14  1  0
 14 15  2  0
  9 16  1  0
 16 17  1  0
 17 18  1  0
 18 19  1  0
 19 20  1  0
 20 21  2  0
 21 22  1  0
 22 23  2  0
  4 24  1  0
 24 25  2  0
 25  1  1  0
 17  6  1  0
 23 19  1  0
 15 10  1  0
M  END
$$$$
