
     RDKit          3D

 29 32  0  0  0  0  0  0  0  0999 V2000
   -8.5202   57.2219   32.8657 C   0  0  0  0  0  0  0  0  0  0  0  0
   -8.6831   58.3665   31.8581 C   0  0  0  0  0  0  0  0  0  0  0  0
   -7.5022   58.2563   30.9197 C   0  0  0  0  0  0  0  0  0  0  0  0
   -7.3555   59.4553   30.0099 C   0  0  0  0  0  0  0  0  0  0  0  0
   -6.1469   60.1560   30.4142 N   0  0  0  0  0  0  0  0  0  0  0  0
   -6.1768   61.3120   31.2329 C   0  0  0  0  0  0  0  0  0  0  0  0
   -7.2455   61.6803   31.7584 O   0  0  0  0  0  0  0  0  0  0  0  0
   -4.8689   62.0058   31.3940 C   0  0  0  0  0  0  0  0  0  0  0  0
   -5.0550   63.1540   32.1700 N   0  0  0  0  0  0  0  0  0  0  0  0
   -6.0382   64.0187   31.6324 C   0  0  0  0  0  0  0  0  0  0  0  0
   -5.4806   65.2230   30.8881 C   0  0  0  0  0  0  0  0  0  0  0  0
   -4.6400   65.9969   31.8420 C   0  0  0  0  0  0  0  0  0  0  0  0
   -3.5166   65.0979   32.2993 C   0  0  0  0  0  0  0  0  0  0  0  0
   -3.9972   63.7757   32.8348 C   0  0  0  0  0  0  0  0  0  0  0  0
   -2.8242   65.8118   33.3568 N   0  0  0  0  0  0  0  0  0  0  0  0
   -1.9595   66.7348   32.7087 C   0  0  0  0  0  0  0  0  0  0  0  0
   -1.5017   67.8017   33.1883 O   0  0  0  0  0  0  0  0  0  0  0  0
   -1.7256   66.1892   31.4021 N   0  0  0  0  0  0  0  0  0  0  0  0
   -2.4426   64.9647   31.2843 C   0  0  0  0  0  0  0  0  0  0  0  0
   -2.1557   64.0482   30.4797 O   0  0  0  0  0  0  0  0  0  0  0  0
   -3.9339   60.9538   31.8990 C   0  0  0  0  0  0  0  0  0  0  0  0
   -3.6482   60.0077   30.7375 C   0  0  0  0  0  0  0  0  0  0  0  0
   -2.5791   60.6618   29.9004 C   0  0  0  0  0  0  0  0  0  0  0  0
   -2.0487   59.7899   28.7986 C   0  0  0  0  0  0  0  0  0  0  0  0
   -1.4706   58.5527   29.3981 C   0  0  0  0  0  0  0  0  0  0  0  0
   -2.4520   57.8402   30.3055 C   0  0  0  0  0  0  0  0  0  0  0  0
   -3.0068   58.7584   31.3487 C   0  0  0  0  0  0  0  0  0  0  0  0
   -4.8592   59.6857   29.9854 C   0  0  0  0  0  0  0  0  0  0  0  0
   -4.7894   58.9898   28.9492 O   0  0  0  0  0  0  0  0  0  0  0  0
  1  2  1  0
  2  3  1  0
  3  4  1  0
  4  5  1  0
  5  6  1  0
  6  7  2  0
  6  8  1  0
  8  9  1  0
  9 10  1  0
 10 11  1  0
 11 12  1  0
 12 13  1  0
 13 14  1  0
 13 15  1  0
 15 16  1  0
 16 17  2  0
 16 18  1  0
 18 19  1  0
 19 20  2  0
  8 21  1  0
 21 22  1  0
 22 23  1  0
 23 24  1  0
 24 25  1  0
 25 26  1  0
 26 27  1  0
 22 28  1  0
 28 29  2  0
 28  5  1  0
 14  9  1  0
 27 22  1  0
 19 13  1  0
M  END
$$$$
