
     RDKit          3D

 25 28  0  0  0  0  0  0  0  0999 V2000
   10.9142  100.9102   56.9899 C   0  0  0  0  0  0  0  0  0  0  0  0
   11.4073   99.7791   57.8333 C   0  0  0  0  0  0  0  0  0  0  0  0
   10.7185   99.4238   58.9841 C   0  0  0  0  0  0  0  0  0  0  0  0
   11.1338   98.3878   59.7946 C   0  0  0  0  0  0  0  0  0  0  0  0
   12.2720   97.6994   59.4277 C   0  0  0  0  0  0  0  0  0  0  0  0
   12.9468   98.0578   58.2876 C   0  0  0  0  0  0  0  0  0  0  0  0
   12.5511   99.0897   57.4615 C   0  0  0  0  0  0  0  0  0  0  0  0
   13.2667   99.4442   56.2834 N   0  0  0  0  0  0  0  0  0  0  0  0
   13.0242   99.0006   54.9679 C   0  0  0  0  0  0  0  0  0  0  0  0
   12.1136   98.2012   54.6205 O   0  0  0  0  0  0  0  0  0  0  0  0
   13.9998   99.6148   54.0559 C   0  0  0  0  0  0  0  0  0  0  0  0
   14.2414   99.5613   52.7405 N   0  0  0  0  0  0  0  0  0  0  0  0
   15.2288  100.2424   52.1325 C   0  0  0  0  0  0  0  0  0  0  0  0
   15.4459  100.1431   50.6789 C   0  0  0  0  0  0  0  0  0  0  0  0
   14.7524   99.1766   49.9806 C   0  0  0  0  0  0  0  0  0  0  0  0
   14.9593   99.0830   48.6000 C   0  0  0  0  0  0  0  0  0  0  0  0
   15.8382   99.9466   47.9819 C   0  0  0  0  0  0  0  0  0  0  0  0
   16.5129  100.8970   48.7035 C   0  0  0  0  0  0  0  0  0  0  0  0
   16.3184  100.9980   50.0558 C   0  0  0  0  0  0  0  0  0  0  0  0
   16.0096  101.0173   52.9043 N   0  0  0  0  0  0  0  0  0  0  0  0
   15.8324  101.1264   54.2399 C   0  0  0  0  0  0  0  0  0  0  0  0
   16.6215  101.9126   55.0363 O   0  0  0  0  0  0  0  0  0  0  0  0
   14.8068  100.4139   54.8445 C   0  0  0  0  0  0  0  0  0  0  0  0
   14.3768  100.3309   56.2414 C   0  0  0  0  0  0  0  0  0  0  0  0
   14.9185  100.9494   57.2053 O   0  0  0  0  0  0  0  0  0  0  0  0
  1  2  1  0
  2  3  2  0
  3  4  1  0
  4  5  2  0
  5  6  1  0
  6  7  2  0
  7  8  1  0
  8  9  1  0
  9 10  2  0
  9 11  1  0
 11 12  2  0
 12 13  1  0
 13 14  1  0
 14 15  2  0
 15 16  1  0
 16 17  2  0
 17 18  1  0
 18 19  2  0
 13 20  2  0
 20 21  1  0
 21 22  1  0
 21 23  2  0
 23 24  1  0
 24 25  2  0
  7  2  1  0
 24  8  1  0
 23 11  1  0
 19 14  1  0
M  END
$$$$
