
     RDKit          3D

 18 20  0  0  0  0  0  0  0  0999 V2000
   36.4099   82.7012   53.8364 C   0  0  0  0  0  0  0  0  0  0  0  0
   35.8879   82.0691   52.6284 N   0  0  0  0  0  0  0  0  0  0  0  0
   34.6432   82.3069   52.1379 C   0  0  0  0  0  0  0  0  0  0  0  0
   34.4744   81.5570   51.0011 C   0  0  0  0  0  0  0  0  0  0  0  0
   33.2862   81.4842   50.2039 C   0  0  0  0  0  0  0  0  0  0  0  0
   33.3718   82.2089   48.9476 N   0  0  0  0  0  0  0  0  0  0  0  0
   32.3739   81.7993   48.0256 C   0  0  0  0  0  0  0  0  0  0  0  0
   31.1531   81.1908   48.6288 C   0  0  0  0  0  0  0  0  0  0  0  0
   30.8983   81.7170   50.0138 C   0  0  0  0  0  0  0  0  0  0  0  0
   29.6658   82.0330   50.4728 C   0  0  0  0  0  0  0  0  0  0  0  0
   29.5149   82.5014   51.7665 C   0  0  0  0  0  0  0  0  0  0  0  0
   30.6219   82.6448   52.5855 C   0  0  0  0  0  0  0  0  0  0  0  0
   30.5303   83.0981   53.8584 F   0  0  0  0  0  0  0  0  0  0  0  0
   31.9042   82.3252   52.1344 C   0  0  0  0  0  0  0  0  0  0  0  0
   33.2729   82.5080   53.2065 Cl  0  0  0  0  0  0  0  0  0  0  0  0
   32.0191   81.8639   50.8459 C   0  0  0  0  0  0  0  0  0  0  0  0
   35.6535   80.8737   50.8372 C   0  0  0  0  0  0  0  0  0  0  0  0
   36.4937   81.2077   51.8459 N   0  0  0  0  0  0  0  0  0  0  0  0
  1  2  1  0
  2  3  1  0
  3  4  2  0
  4  5  1  0
  5  6  1  0
  6  7  1  0
  7  8  1  0
  8  9  1  0
  9 10  2  0
 10 11  1  0
 11 12  2  0
 12 13  1  0
 12 14  1  0
 14 15  1  0
 14 16  2  0
  4 17  1  0
 17 18  2  0
 18  2  1  0
 16  5  1  0
 16  9  1  0
M  END
$$$$
