
     RDKit          3D

 29 32  0  0  0  0  0  0  0  0999 V2000
   11.7542   61.0791   12.0064 C   0  0  0  0  0  0  0  0  0  0  0  0
   11.7492   59.6931   11.7377 O   0  0  0  0  0  0  0  0  0  0  0  0
   12.8929   58.9436   11.8016 C   0  0  0  0  0  0  0  0  0  0  0  0
   13.1620   57.8835   10.9987 C   0  0  0  0  0  0  0  0  0  0  0  0
   14.3393   57.1497   11.0919 C   0  0  0  0  0  0  0  0  0  0  0  0
   15.2604   57.5243   12.0406 C   0  0  0  0  0  0  0  0  0  0  0  0
   15.0207   58.6155   12.8904 C   0  0  0  0  0  0  0  0  0  0  0  0
   13.8483   59.3034   12.7600 C   0  0  0  0  0  0  0  0  0  0  0  0
   16.0592   58.7274   13.6687 O   0  0  0  0  0  0  0  0  0  0  0  0
   16.9291   57.7696   13.3512 C   0  0  0  0  0  0  0  0  0  0  0  0
   18.0318   57.6328   13.9363 O   0  0  0  0  0  0  0  0  0  0  0  0
   16.4581   57.0120   12.3477 N   0  0  0  0  0  0  0  0  0  0  0  0
   17.1692   55.8772   11.8111 C   0  0  0  0  0  0  0  0  0  0  0  0
   16.9367   54.6315   12.5830 C   0  0  0  0  0  0  0  0  0  0  0  0
   15.9686   54.5370   13.5555 N   0  0  0  0  0  0  0  0  0  0  0  0
   15.9971   53.2832   14.0720 C   0  0  0  0  0  0  0  0  0  0  0  0
   15.0809   52.8578   15.1579 C   0  0  0  0  0  0  0  0  0  0  0  0
   15.5318   51.6309   15.8610 C   0  0  0  0  0  0  0  0  0  0  0  0
   14.7553   51.4089   17.0183 O   0  0  0  0  0  0  0  0  0  0  0  0
   14.9972   50.2214   17.7223 C   0  0  0  0  0  0  0  0  0  0  0  0
   13.9572   49.5960   18.3670 C   0  0  0  0  0  0  0  0  0  0  0  0
   14.1291   48.4319   19.0662 C   0  0  0  0  0  0  0  0  0  0  0  0
   13.0152   47.7543   19.7578 C   0  0  0  0  0  0  0  0  0  0  0  0
   15.4143   47.9122   19.0923 C   0  0  0  0  0  0  0  0  0  0  0  0
   16.4783   48.5275   18.4498 C   0  0  0  0  0  0  0  0  0  0  0  0
   17.8324   47.9459   18.4913 C   0  0  0  0  0  0  0  0  0  0  0  0
   16.2597   49.7192   17.7434 C   0  0  0  0  0  0  0  0  0  0  0  0
   16.9732   52.6364   13.4168 N   0  0  0  0  0  0  0  0  0  0  0  0
   17.5047   53.4710   12.5416 O   0  0  0  0  0  0  0  0  0  0  0  0
  1  2  1  0
  2  3  1  0
  3  4  2  0
  4  5  1  0
  5  6  2  0
  6  7  1  0
  7  8  2  0
  7  9  1  0
  9 10  1  0
 10 11  2  0
 10 12  1  0
 12 13  1  0
 13 14  1  0
 14 15  2  0
 15 16  1  0
 16 17  1  0
 17 18  1  0
 18 19  1  0
 19 20  1  0
 20 21  2  0
 21 22  1  0
 22 23  1  0
 22 24  2  0
 24 25  1  0
 25 26  1  0
 25 27  2  0
 16 28  2  0
 28 29  1  0
  8  3  1  0
 29 14  1  0
 12  6  1  0
 27 20  1  0
M  END
$$$$
