
     RDKit          3D

 23 25  0  0  0  0  0  0  0  0999 V2000
   37.8960   80.4564   53.0634 C   0  0  0  0  0  0  0  0  0  0  0  0
   37.8499   81.5778   52.1370 N   0  0  0  0  0  0  0  0  0  0  0  0
   38.5218   82.7212   52.4205 C   0  0  0  0  0  0  0  0  0  0  0  0
   38.3040   83.6003   51.4042 C   0  0  0  0  0  0  0  0  0  0  0  0
   37.5171   82.9843   50.5368 N   0  0  0  0  0  0  0  0  0  0  0  0
   37.2185   81.7206   50.9692 C   0  0  0  0  0  0  0  0  0  0  0  0
   36.3908   80.7287   50.2939 C   0  0  0  0  0  0  0  0  0  0  0  0
   35.1135   81.1802   49.8504 N   0  0  0  0  0  0  0  0  0  0  0  0
   34.6200   81.1491   48.5720 C   0  0  0  0  0  0  0  0  0  0  0  0
   33.3540   81.6503   48.5547 C   0  0  0  0  0  0  0  0  0  0  0  0
   32.5350   81.7643   47.3650 C   0  0  0  0  0  0  0  0  0  0  0  0
   31.8927   81.8579   46.3999 N   0  0  0  0  0  0  0  0  0  0  0  0
   33.0448   82.0029   49.8400 C   0  0  0  0  0  0  0  0  0  0  0  0
   31.8875   82.5604   50.3508 C   0  0  0  0  0  0  0  0  0  0  0  0
   31.7987   82.8393   51.6794 C   0  0  0  0  0  0  0  0  0  0  0  0
   30.6564   83.3927   52.2018 O   0  0  0  0  0  0  0  0  0  0  0  0
   29.4728   82.6740   52.4683 C   0  0  0  0  0  0  0  0  0  0  0  0
   28.7655   83.1659   53.5301 F   0  0  0  0  0  0  0  0  0  0  0  0
   29.8442   81.3620   52.7349 F   0  0  0  0  0  0  0  0  0  0  0  0
   28.6359   82.6671   51.3722 F   0  0  0  0  0  0  0  0  0  0  0  0
   32.8725   82.5562   52.4828 C   0  0  0  0  0  0  0  0  0  0  0  0
   34.0442   81.9918   51.9664 C   0  0  0  0  0  0  0  0  0  0  0  0
   34.1545   81.7011   50.6255 C   0  0  0  0  0  0  0  0  0  0  0  0
  1  2  1  0
  2  3  1  0
  3  4  2  0
  4  5  1  0
  5  6  2  0
  6  7  1  0
  7  8  1  0
  8  9  1  0
  9 10  2  0
 10 11  1  0
 11 12  3  0
 10 13  1  0
 13 14  2  0
 14 15  1  0
 15 16  1  0
 16 17  1  0
 17 18  1  0
 17 19  1  0
 17 20  1  0
 15 21  2  0
 21 22  1  0
 22 23  2  0
  6  2  1  0
 23  8  1  0
 23 13  1  0
M  END
$$$$
