
     RDKit          3D

 21 23  0  0  0  0  0  0  0  0999 V2000
   29.7675   82.1530   53.3564 C   0  0  0  0  0  0  0  0  0  0  0  0
   31.0411   82.0592   52.8126 O   0  0  0  0  0  0  0  0  0  0  0  0
   31.3063   82.1043   51.4524 C   0  0  0  0  0  0  0  0  0  0  0  0
   30.2474   82.1583   50.6045 C   0  0  0  0  0  0  0  0  0  0  0  0
   30.3636   82.2074   49.2292 C   0  0  0  0  0  0  0  0  0  0  0  0
   31.6486   82.1990   48.7227 C   0  0  0  0  0  0  0  0  0  0  0  0
   31.9263   82.2455   47.3613 O   0  0  0  0  0  0  0  0  0  0  0  0
   30.9223   81.7628   46.4921 C   0  0  0  0  0  0  0  0  0  0  0  0
   32.7207   82.1440   49.5766 C   0  0  0  0  0  0  0  0  0  0  0  0
   34.4639   82.1141   49.3436 S   0  0  0  0  0  0  0  0  0  0  0  0
   34.8577   82.0388   51.1895 C   0  0  0  0  0  0  0  0  0  0  0  0
   36.2186   81.9859   51.6554 C   0  0  0  0  0  0  0  0  0  0  0  0
   37.1283   82.4020   50.8951 O   0  0  0  0  0  0  0  0  0  0  0  0
   36.5143   81.4784   52.9340 N   0  0  0  0  0  0  0  0  0  0  0  0
   37.8392   81.5846   53.5002 C   0  0  0  0  0  0  0  0  0  0  0  0
   38.3437   80.1416   53.6302 C   0  0  0  0  0  0  0  0  0  0  0  0
   37.3530   79.3777   54.4726 C   0  0  0  0  0  0  0  0  0  0  0  0
   35.9807   79.3608   53.8337 C   0  0  0  0  0  0  0  0  0  0  0  0
   35.5138   80.8203   53.7578 C   0  0  0  0  0  0  0  0  0  0  0  0
   33.7455   82.0468   51.6045 N   0  0  0  0  0  0  0  0  0  0  0  0
   32.6168   82.0956   50.9564 C   0  0  0  0  0  0  0  0  0  0  0  0
  1  2  1  0
  2  3  1  0
  3  4  2  0
  4  5  1  0
  5  6  2  0
  6  7  1  0
  7  8  1  0
  6  9  1  0
  9 10  1  0
 10 11  1  0
 11 12  1  0
 12 13  2  0
 12 14  1  0
 14 15  1  0
 15 16  1  0
 16 17  1  0
 17 18  1  0
 18 19  1  0
 11 20  2  0
 20 21  1  0
 21  3  1  0
 21  9  2  0
 19 14  1  0
M  END
$$$$
