
     RDKit          3D

 31 33  0  0  0  0  0  0  0  0999 V2000
   11.1971   89.1889   67.3929 C   0  0  0  0  0  0  0  0  0  0  0  0
   11.3137   90.4012   66.5145 C   0  0  0  0  0  0  0  0  0  0  0  0
   10.4587   90.5933   65.4457 C   0  0  0  0  0  0  0  0  0  0  0  0
   10.6467   91.7462   64.6923 C   0  0  0  0  0  0  0  0  0  0  0  0
   11.6465   92.6266   65.0282 C   0  0  0  0  0  0  0  0  0  0  0  0
   11.8270   93.8184   64.2334 C   0  0  0  0  0  0  0  0  0  0  0  0
   10.8050   94.6892   63.9355 C   0  0  0  0  0  0  0  0  0  0  0  0
   11.0278   95.8271   63.1629 C   0  0  0  0  0  0  0  0  0  0  0  0
    9.8986   96.7492   62.8587 C   0  0  0  0  0  0  0  0  0  0  0  0
   12.2817   96.1233   62.6672 C   0  0  0  0  0  0  0  0  0  0  0  0
   12.5536   97.2768   61.8732 N   0  0  0  0  0  0  0  0  0  0  0  0
   12.2912   97.2689   60.4758 C   0  0  0  0  0  0  0  0  0  0  0  0
   11.6987   96.2629   60.0246 O   0  0  0  0  0  0  0  0  0  0  0  0
   12.6677   98.3241   59.6233 N   0  0  0  0  0  0  0  0  0  0  0  0
   12.1088   99.6740   59.6942 C   0  0  0  0  0  0  0  0  0  0  0  0
   12.3540  100.3615   58.3546 C   0  0  0  0  0  0  0  0  0  0  0  0
   12.0582   99.3809   57.2188 C   0  0  0  0  0  0  0  0  0  0  0  0
   10.6568   98.8584   57.4334 C   0  0  0  0  0  0  0  0  0  0  0  0
    9.8808   98.9950   56.2841 O   0  0  0  0  0  0  0  0  0  0  0  0
   12.1753  100.1585   55.9471 C   0  0  0  0  0  0  0  0  0  0  0  0
   12.1057  101.5488   55.9747 N   0  0  0  0  0  0  0  0  0  0  0  0
   12.8757  102.3491   55.0977 C   0  0  0  0  0  0  0  0  0  0  0  0
   12.2059  102.0834   57.3219 C   0  0  0  0  0  0  0  0  0  0  0  0
   13.0237   98.2322   57.2438 C   0  0  0  0  0  0  0  0  0  0  0  0
   13.6594   98.1260   58.6114 C   0  0  0  0  0  0  0  0  0  0  0  0
   13.2939   95.2377   62.9770 C   0  0  0  0  0  0  0  0  0  0  0  0
   14.6532   95.5465   62.4471 C   0  0  0  0  0  0  0  0  0  0  0  0
   13.0810   94.1029   63.7454 C   0  0  0  0  0  0  0  0  0  0  0  0
   12.4718   92.3925   66.1003 C   0  0  0  0  0  0  0  0  0  0  0  0
   13.4454   93.2917   66.3925 F   0  0  0  0  0  0  0  0  0  0  0  0
   12.2916   91.2615   66.8438 N   0  0  0  0  0  0  0  0  0  0  0  0
  1  2  1  0
  2  3  2  0
  3  4  1  0
  4  5  2  0
  5  6  1  0
  6  7  2  0
  7  8  1  0
  8  9  1  0
  8 10  2  0
 10 11  1  0
 11 12  1  0
 12 13  2  0
 12 14  1  0
 14 15  1  0
 15 16  1  0
 16 17  1  0
 17 18  1  0
 18 19  1  0
 17 20  1  0
 20 21  1  0
 21 22  1  0
 21 23  1  0
 17 24  1  0
 24 25  1  0
 10 26  1  0
 26 27  1  0
 26 28  2  0
  5 29  1  0
 29 30  1  0
 29 31  2  0
 31  2  1  0
 28  6  1  0
 25 14  1  0
M  END
$$$$
