
     RDKit          3D

 23 25  0  0  0  0  0  0  0  0999 V2000
   14.8563  100.6376   57.0634 C   0  0  0  0  0  0  0  0  0  0  0  0
   13.8036  100.1746   56.1391 C   0  0  0  0  0  0  0  0  0  0  0  0
   13.9095  100.1471   54.8023 N   0  0  0  0  0  0  0  0  0  0  0  0
   12.7863   99.6797   54.3305 N   0  0  0  0  0  0  0  0  0  0  0  0
   11.9876   99.4176   55.3517 N   0  0  0  0  0  0  0  0  0  0  0  0
   12.5881   99.7136   56.4932 N   0  0  0  0  0  0  0  0  0  0  0  0
   12.0665   99.5761   57.8101 C   0  0  0  0  0  0  0  0  0  0  0  0
   11.2249  100.5042   58.3732 C   0  0  0  0  0  0  0  0  0  0  0  0
   10.7812  100.2686   59.6546 C   0  0  0  0  0  0  0  0  0  0  0  0
   11.1366   99.1623   60.3872 C   0  0  0  0  0  0  0  0  0  0  0  0
   11.9942   98.2025   59.8328 C   0  0  0  0  0  0  0  0  0  0  0  0
   12.3397   97.0512   60.6484 C   0  0  0  0  0  0  0  0  0  0  0  0
   13.5881   96.8490   60.8662 O   0  0  0  0  0  0  0  0  0  0  0  0
   11.4678   96.1295   61.2292 N   0  0  0  0  0  0  0  0  0  0  0  0
   11.9513   95.0770   62.1175 C   0  0  0  0  0  0  0  0  0  0  0  0
   11.1318   94.9981   63.3860 C   0  0  0  0  0  0  0  0  0  0  0  0
   11.9423   94.6255   64.5867 C   0  0  0  0  0  0  0  0  0  0  0  0
   13.0570   93.6695   64.3037 C   0  0  0  0  0  0  0  0  0  0  0  0
   13.9146   94.0682   63.1423 C   0  0  0  0  0  0  0  0  0  0  0  0
   15.3605   94.2223   63.4812 C   0  0  0  0  0  0  0  0  0  0  0  0
   13.3853   95.3548   62.5234 C   0  0  0  0  0  0  0  0  0  0  0  0
   12.4328   98.4437   58.5545 C   0  0  0  0  0  0  0  0  0  0  0  0
   13.2673   97.5299   57.9873 F   0  0  0  0  0  0  0  0  0  0  0  0
  1  2  1  0
  2  3  2  0
  3  4  1  0
  4  5  2  0
  5  6  1  0
  6  7  1  0
  7  8  2  0
  8  9  1  0
  9 10  2  0
 10 11  1  0
 11 12  1  0
 12 13  2  0
 12 14  1  0
 14 15  1  0
 15 16  1  0
 16 17  1  0
 17 18  1  0
 18 19  1  0
 19 20  1  0
 19 21  1  0
 11 22  2  0
 22 23  1  0
  6  2  1  0
 22  7  1  0
 21 15  1  0
M  END
$$$$
