
     RDKit          3D

 16 17  0  0  0  0  0  0  0  0999 V2000
   39.5377   82.3452   52.2868 O   0  0  0  0  0  0  0  0  0  0  0  0
   38.2048   82.5188   51.9641 C   0  0  0  0  0  0  0  0  0  0  0  0
   37.5800   81.1812   51.6012 C   0  0  0  0  0  0  0  0  0  0  0  0
   36.1781   81.4457   51.2015 C   0  0  0  0  0  0  0  0  0  0  0  0
   35.0571   81.4858   52.0009 C   0  0  0  0  0  0  0  0  0  0  0  0
   34.0247   81.7555   51.2172 N   0  0  0  0  0  0  0  0  0  0  0  0
   32.6380   81.9068   51.5425 C   0  0  0  0  0  0  0  0  0  0  0  0
   32.2442   82.3901   52.7861 C   0  0  0  0  0  0  0  0  0  0  0  0
   30.9094   82.5349   53.0971 C   0  0  0  0  0  0  0  0  0  0  0  0
   29.9397   82.1967   52.1639 C   0  0  0  0  0  0  0  0  0  0  0  0
   28.2709   82.3856   52.5730 Cl  0  0  0  0  0  0  0  0  0  0  0  0
   30.3036   81.7167   50.9274 C   0  0  0  0  0  0  0  0  0  0  0  0
   31.6460   81.5830   50.6459 C   0  0  0  0  0  0  0  0  0  0  0  0
   32.1368   80.9699   49.0679 Cl  0  0  0  0  0  0  0  0  0  0  0  0
   34.4897   81.8772   49.9822 N   0  0  0  0  0  0  0  0  0  0  0  0
   35.7776   81.6946   49.9546 N   0  0  0  0  0  0  0  0  0  0  0  0
  1  2  1  0
  2  3  1  0
  3  4  1  0
  4  5  2  0
  5  6  1  0
  6  7  1  0
  7  8  2  0
  8  9  1  0
  9 10  2  0
 10 11  1  0
 10 12  1  0
 12 13  2  0
 13 14  1  0
  6 15  1  0
 15 16  2  0
 16  4  1  0
 13  7  1  0
M  END
$$$$
