
     RDKit          3D

 23 25  0  0  0  0  0  0  0  0999 V2000
   14.8074   53.2605   13.0669 C   0  0  0  0  0  0  0  0  0  0  0  0
   15.8365   54.2694   13.5003 C   0  0  0  0  0  0  0  0  0  0  0  0
   17.1665   53.7238   12.9797 C   0  0  0  0  0  0  0  0  0  0  0  0
   18.2725   54.7019   13.0339 C   0  0  0  0  0  0  0  0  0  0  0  0
   17.8072   56.1387   12.8425 C   0  0  0  0  0  0  0  0  0  0  0  0
   16.5370   56.0184   11.9805 C   0  0  0  0  0  0  0  0  0  0  0  0
   16.2722   57.2451   11.2125 C   0  0  0  0  0  0  0  0  0  0  0  0
   15.5139   55.5408   12.9010 N   0  0  0  0  0  0  0  0  0  0  0  0
   14.3341   56.2339   13.1313 C   0  0  0  0  0  0  0  0  0  0  0  0
   13.3891   55.4733   13.6740 O   0  0  0  0  0  0  0  0  0  0  0  0
   13.9330   57.6028   12.9048 C   0  0  0  0  0  0  0  0  0  0  0  0
   14.4465   58.7220   13.4751 C   0  0  0  0  0  0  0  0  0  0  0  0
   14.0254   59.9935   13.1643 N   0  0  0  0  0  0  0  0  0  0  0  0
   13.0723   60.1810   12.2665 C   0  0  0  0  0  0  0  0  0  0  0  0
   12.6133   61.4826   11.9218 N   0  0  0  0  0  0  0  0  0  0  0  0
   13.2855   62.6456   12.4229 C   0  0  0  0  0  0  0  0  0  0  0  0
   12.4266   63.8577   12.5384 C   0  0  0  0  0  0  0  0  0  0  0  0
   11.2767   63.8345   11.7961 O   0  0  0  0  0  0  0  0  0  0  0  0
   11.3267   63.0757   10.6544 C   0  0  0  0  0  0  0  0  0  0  0  0
   11.4692   61.6249   11.0663 C   0  0  0  0  0  0  0  0  0  0  0  0
   12.5401   59.0978   11.6793 N   0  0  0  0  0  0  0  0  0  0  0  0
   12.9172   57.8495   11.9505 C   0  0  0  0  0  0  0  0  0  0  0  0
   12.2975   56.7421   11.2843 N   0  0  0  0  0  0  0  0  0  0  0  0
  1  2  1  0
  2  3  1  0
  3  4  1  0
  4  5  1  0
  5  6  1  0
  6  7  1  0
  6  8  1  0
  8  9  1  0
  9 10  2  0
  9 11  1  0
 11 12  2  0
 12 13  1  0
 13 14  2  0
 14 15  1  0
 15 16  1  0
 16 17  1  0
 17 18  1  0
 18 19  1  0
 19 20  1  0
 14 21  1  0
 21 22  2  0
 22 23  1  0
  8  2  1  0
 22 11  1  0
 20 15  1  0
M  END
$$$$
