
     RDKit          3D

 23 24  0  0  0  0  0  0  0  0999 V2000
   35.3020   80.4183   53.8795 C   0  0  0  0  0  0  0  0  0  0  0  0
   36.5746   80.4648   53.0110 C   0  0  0  0  0  0  0  0  0  0  0  0
   37.4333   79.3397   53.5215 C   0  0  0  0  0  0  0  0  0  0  0  0
   37.1406   81.7411   52.9398 N   0  0  0  0  0  0  0  0  0  0  0  0
   38.2763   82.2752   53.6461 C   0  0  0  0  0  0  0  0  0  0  0  0
   39.5702   81.6149   53.4780 C   0  0  0  0  0  0  0  0  0  0  0  0
   40.1858   81.6897   52.1783 C   0  0  0  0  0  0  0  0  0  0  0  0
   40.6649   81.7335   51.1418 N   0  0  0  0  0  0  0  0  0  0  0  0
   36.4709   82.7109   52.0982 C   0  0  0  0  0  0  0  0  0  0  0  0
   36.8772   83.8888   52.1311 O   0  0  0  0  0  0  0  0  0  0  0  0
   35.3397   82.3931   51.2217 C   0  0  0  0  0  0  0  0  0  0  0  0
   34.0569   82.5012   51.6227 C   0  0  0  0  0  0  0  0  0  0  0  0
   32.9588   82.1335   50.8205 C   0  0  0  0  0  0  0  0  0  0  0  0
   31.6457   82.1707   51.3419 N   0  0  0  0  0  0  0  0  0  0  0  0
   31.3151   82.3357   52.7677 C   0  0  0  0  0  0  0  0  0  0  0  0
   30.2102   83.3493   52.7379 C   0  0  0  0  0  0  0  0  0  0  0  0
   29.6184   83.2868   51.3617 C   0  0  0  0  0  0  0  0  0  0  0  0
   30.3805   82.1927   50.6684 C   0  0  0  0  0  0  0  0  0  0  0  0
   30.0678   81.4330   49.7306 O   0  0  0  0  0  0  0  0  0  0  0  0
   33.2178   81.6448   49.5618 C   0  0  0  0  0  0  0  0  0  0  0  0
   34.5569   81.5230   49.1187 C   0  0  0  0  0  0  0  0  0  0  0  0
   35.5676   81.8952   49.9518 C   0  0  0  0  0  0  0  0  0  0  0  0
   37.2393   81.7262   49.4506 Cl  0  0  0  0  0  0  0  0  0  0  0  0
  1  2  1  0
  2  3  1  0
  2  4  1  0
  4  5  1  0
  5  6  1  0
  6  7  1  0
  7  8  3  0
  4  9  1  0
  9 10  2  0
  9 11  1  0
 11 12  2  0
 12 13  1  0
 13 14  1  0
 14 15  1  0
 15 16  1  0
 16 17  1  0
 17 18  1  0
 18 19  2  0
 13 20  2  0
 20 21  1  0
 21 22  2  0
 22 23  1  0
 22 11  1  0
 18 14  1  0
M  END
$$$$
