
     RDKit          3D

 27 29  0  0  0  0  0  0  0  0999 V2000
   17.8893   52.1734   15.6523 C   0  0  0  0  0  0  0  0  0  0  0  0
   16.5255   52.6703   16.0978 C   0  0  0  0  0  0  0  0  0  0  0  0
   15.7263   51.5431   16.6968 C   0  0  0  0  0  0  0  0  0  0  0  0
   15.8843   53.2225   14.9083 N   0  0  0  0  0  0  0  0  0  0  0  0
   16.2115   54.6312   14.7610 C   0  0  0  0  0  0  0  0  0  0  0  0
   15.4676   55.1585   13.5569 C   0  0  1  0  0  0  0  0  0  0  0  0
   15.1677   56.5505   13.7179 N   0  0  0  0  0  0  0  0  0  0  0  0
   14.0511   57.1513   13.1020 C   0  0  0  0  0  0  0  0  0  0  0  0
   13.1628   56.4416   12.3818 N   0  0  0  0  0  0  0  0  0  0  0  0
   12.1128   57.0488   11.8071 C   0  0  0  0  0  0  0  0  0  0  0  0
   11.9029   58.3726   11.9223 N   0  0  0  0  0  0  0  0  0  0  0  0
   12.7616   59.1217   12.6306 C   0  0  0  0  0  0  0  0  0  0  0  0
   12.5370   60.4786   12.7425 C   0  0  0  0  0  0  0  0  0  0  0  0
   11.4129   61.1534   12.1321 C   0  0  0  0  0  0  0  0  0  0  0  0
   11.0255   62.4272   12.6306 N   0  0  0  0  0  0  0  0  0  0  0  0
   10.7949   60.6389   11.1935 O   0  0  0  0  0  0  0  0  0  0  0  0
   13.4456   61.2058   13.4796 C   0  0  0  0  0  0  0  0  0  0  0  0
   14.5310   60.5767   14.0733 C   0  0  0  0  0  0  0  0  0  0  0  0
   14.7186   59.2573   13.9443 N   0  0  0  0  0  0  0  0  0  0  0  0
   13.8444   58.5259   13.2290 C   0  0  0  0  0  0  0  0  0  0  0  0
   16.2437   54.8751   12.3313 C   0  0  0  0  0  0  0  0  0  0  0  0
   16.3857   53.5798   11.9077 C   0  0  0  0  0  0  0  0  0  0  0  0
   17.1207   53.3344   10.7507 C   0  0  0  0  0  0  0  0  0  0  0  0
   17.6787   54.3919   10.0717 C   0  0  0  0  0  0  0  0  0  0  0  0
   18.3832   54.1146    8.9560 F   0  0  0  0  0  0  0  0  0  0  0  0
   17.5159   55.6862   10.5269 C   0  0  0  0  0  0  0  0  0  0  0  0
   16.8004   55.9437   11.6562 C   0  0  0  0  0  0  0  0  0  0  0  0
  1  2  1  0
  2  3  1  0
  2  4  1  0
  4  5  1  0
  6  5  1  1
  6  7  1  0
  7  8  1  0
  8  9  2  0
  9 10  1  0
 10 11  2  0
 11 12  1  0
 12 13  2  0
 13 14  1  0
 14 15  1  0
 14 16  2  0
 13 17  1  0
 17 18  2  0
 18 19  1  0
 19 20  2  0
  6 21  1  0
 21 22  2  0
 22 23  1  0
 23 24  2  0
 24 25  1  0
 24 26  1  0
 26 27  2  0
 20  8  1  0
 27 21  1  0
 20 12  1  0
M  END
$$$$
