
     RDKit          3D

 33 36  0  0  0  0  0  0  0  0999 V2000
    8.5838   98.2703   59.9618 N   0  0  0  0  0  0  0  0  0  0  0  0
    9.4504   98.1097   60.7058 C   0  0  0  0  0  0  0  0  0  0  0  0
   10.5591   97.8948   61.6288 C   0  0  0  0  0  0  0  0  0  0  0  0
   11.8416   97.6641   60.8408 C   0  0  0  0  0  0  0  0  0  0  0  0
   12.0517   98.8607   60.0508 N   0  0  0  0  0  0  0  0  0  0  0  0
   11.2757   99.9605   60.1734 C   0  0  0  0  0  0  0  0  0  0  0  0
   11.7487  100.8987   59.2819 C   0  0  0  0  0  0  0  0  0  0  0  0
   11.2129  102.2377   59.0720 C   0  0  0  0  0  0  0  0  0  0  0  0
   11.7997  103.0426   58.2454 N   0  0  0  0  0  0  0  0  0  0  0  0
   10.0821  102.6987   59.7290 O   0  0  0  0  0  0  0  0  0  0  0  0
   12.8118  100.3021   58.6519 C   0  0  0  0  0  0  0  0  0  0  0  0
   13.6370  100.8590   57.6412 N   0  0  0  0  0  0  0  0  0  0  0  0
   13.9623  100.0807   56.4995 C   0  0  0  0  0  0  0  0  0  0  0  0
   13.2227   98.9815   56.1317 C   0  0  0  0  0  0  0  0  0  0  0  0
   13.5674   98.2471   55.0126 C   0  0  0  0  0  0  0  0  0  0  0  0
   14.6578   98.5997   54.2422 C   0  0  0  0  0  0  0  0  0  0  0  0
   14.9922   97.8729   53.1413 F   0  0  0  0  0  0  0  0  0  0  0  0
   15.4186   99.7012   54.5901 C   0  0  0  0  0  0  0  0  0  0  0  0
   15.0455  100.4096   55.7120 C   0  0  0  0  0  0  0  0  0  0  0  0
   12.9849   99.0480   59.1369 N   0  0  0  0  0  0  0  0  0  0  0  0
   11.6681   96.5080   59.9207 C   0  0  0  0  0  0  0  0  0  0  0  0
   11.7169   95.1504   60.6296 C   0  0  0  0  0  0  0  0  0  0  0  0
   13.0322   95.0799   61.3385 C   0  0  0  0  0  0  0  0  0  0  0  0
   13.4010   93.8055   61.8607 N   0  0  0  0  0  0  0  0  0  0  0  0
   12.5566   93.4360   62.9775 C   0  0  0  0  0  0  0  0  0  0  0  0
   12.9401   92.1098   63.5775 C   0  0  0  0  0  0  0  0  0  0  0  0
   14.4349   91.9446   63.7162 C   0  0  0  0  0  0  0  0  0  0  0  0
   14.8521   92.7551   64.7720 F   0  0  0  0  0  0  0  0  0  0  0  0
   14.6884   90.6354   64.0714 F   0  0  0  0  0  0  0  0  0  0  0  0
   15.1841   92.3720   62.5011 C   0  0  0  0  0  0  0  0  0  0  0  0
   14.7971   93.8386   62.2494 C   0  0  0  0  0  0  0  0  0  0  0  0
   13.0233   96.1363   62.4282 C   0  0  0  0  0  0  0  0  0  0  0  0
   13.0134   97.5180   61.7885 C   0  0  0  0  0  0  0  0  0  0  0  0
  1  2  3  0
  2  3  1  0
  3  4  1  0
  4  5  1  0
  5  6  1  0
  6  7  2  0
  7  8  1  0
  8  9  2  0
  8 10  1  0
  7 11  1  0
 11 12  1  0
 12 13  1  0
 13 14  2  0
 14 15  1  0
 15 16  2  0
 16 17  1  0
 16 18  1  0
 18 19  2  0
 11 20  2  0
  4 21  1  0
 21 22  1  0
 22 23  1  0
 23 24  1  0
 24 25  1  0
 25 26  1  0
 26 27  1  0
 27 28  1  0
 27 29  1  0
 27 30  1  0
 30 31  1  0
 23 32  1  0
 32 33  1  0
 33  4  1  0
 20  5  1  0
 31 24  1  0
 19 13  1  0
M  END
$$$$
