
     RDKit          3D

 20 21  0  0  0  0  0  0  0  0999 V2000
   11.8613  101.9359   57.4553 C   0  0  0  0  0  0  0  0  0  0  0  0
   11.2359  101.0039   58.2495 O   0  0  0  0  0  0  0  0  0  0  0  0
   12.0132   99.8600   58.4079 C   0  0  0  0  0  0  0  0  0  0  0  0
   11.3848   98.8518   59.3420 C   0  0  0  0  0  0  0  0  0  0  0  0
   12.1463   98.7874   60.6367 C   0  0  0  0  0  0  0  0  0  0  0  0
   11.8125   97.5982   61.3807 N   0  0  0  0  0  0  0  0  0  0  0  0
   12.7547   96.5380   61.4145 C   0  0  0  0  0  0  0  0  0  0  0  0
   13.7815   96.6298   60.7098 O   0  0  0  0  0  0  0  0  0  0  0  0
   12.5540   95.3952   62.2212 N   0  0  0  0  0  0  0  0  0  0  0  0
   13.6500   94.5250   62.5787 C   0  0  0  0  0  0  0  0  0  0  0  0
   13.2152   93.2002   63.1081 C   0  0  0  0  0  0  0  0  0  0  0  0
   12.0556   93.2787   63.9751 N   0  0  0  0  0  0  0  0  0  0  0  0
   11.5565   92.1380   64.6549 C   0  0  0  0  0  0  0  0  0  0  0  0
   12.3247   91.0725   65.0466 C   0  0  0  0  0  0  0  0  0  0  0  0
   11.7902   89.9732   65.7171 C   0  0  0  0  0  0  0  0  0  0  0  0
   10.4640   89.9080   66.0168 C   0  0  0  0  0  0  0  0  0  0  0  0
    9.6593   90.9619   65.6384 C   0  0  0  0  0  0  0  0  0  0  0  0
   10.1948   92.0437   64.9767 C   0  0  0  0  0  0  0  0  0  0  0  0
   11.4124   94.5569   64.1298 C   0  0  0  0  0  0  0  0  0  0  0  0
   11.2210   95.0910   62.6977 C   0  0  0  0  0  0  0  0  0  0  0  0
  1  2  1  0
  2  3  1  0
  3  4  1  0
  4  5  1  0
  5  6  1  0
  6  7  1  0
  7  8  2  0
  7  9  1  0
  9 10  1  0
 10 11  1  0
 11 12  1  0
 12 13  1  0
 13 14  2  0
 14 15  1  0
 15 16  2  0
 16 17  1  0
 17 18  2  0
 12 19  1  0
 19 20  1  0
 20  9  1  0
 18 13  1  0
M  END
$$$$
