
     RDKit          3D

 20 20  0  0  0  0  0  0  0  0999 V2000
   42.0251   80.2651   56.4945 C   0  0  0  0  0  0  0  0  0  0  0  0
   40.7997   81.1331   56.5197 C   0  0  0  0  0  0  0  0  0  0  0  0
   40.9072   82.1190   57.6486 C   0  0  0  0  0  0  0  0  0  0  0  0
   40.6334   81.8947   55.2545 C   0  0  0  0  0  0  0  0  0  0  0  0
   41.3154   81.7346   54.2277 O   0  0  0  0  0  0  0  0  0  0  0  0
   39.5867   82.8866   55.2760 N   0  0  0  0  0  0  0  0  0  0  0  0
   38.4993   82.7366   54.3660 C   0  0  0  0  0  0  0  0  0  0  0  0
   38.9562   82.4109   52.9394 C   0  0  0  0  0  0  0  0  0  0  0  0
   37.9758   82.8918   52.0138 N   0  0  0  0  0  0  0  0  0  0  0  0
   36.9878   82.0498   51.3821 C   0  0  0  0  0  0  0  0  0  0  0  0
   37.0019   80.8311   51.6020 O   0  0  0  0  0  0  0  0  0  0  0  0
   36.0393   82.7422   50.5071 C   0  0  0  0  0  0  0  0  0  0  0  0
   34.9779   81.6155   49.5522 S   0  0  0  0  0  0  0  0  0  0  0  0
   33.3600   81.7252   50.2997 C   0  0  0  0  0  0  0  0  0  0  0  0
   32.2606   81.3254   49.5755 C   0  0  0  0  0  0  0  0  0  0  0  0
   30.9789   81.4062   50.0972 C   0  0  0  0  0  0  0  0  0  0  0  0
   30.7682   81.8938   51.3682 C   0  0  0  0  0  0  0  0  0  0  0  0
   29.1452   82.0102   52.0544 Cl  0  0  0  0  0  0  0  0  0  0  0  0
   31.8833   82.2965   52.0969 C   0  0  0  0  0  0  0  0  0  0  0  0
   33.1601   82.2124   51.5685 C   0  0  0  0  0  0  0  0  0  0  0  0
  1  2  1  0
  2  3  1  0
  2  4  1  0
  4  5  2  0
  4  6  1  0
  6  7  1  0
  7  8  1  0
  8  9  1  0
  9 10  1  0
 10 11  2  0
 10 12  1  0
 12 13  1  0
 13 14  1  0
 14 15  2  0
 15 16  1  0
 16 17  2  0
 17 18  1  0
 17 19  1  0
 19 20  2  0
 20 14  1  0
M  END
$$$$
