
     RDKit          3D

 25 27  0  0  0  0  0  0  0  0999 V2000
   15.3110   52.7980   15.9797 O   0  0  0  0  0  0  0  0  0  0  0  0
   16.1984   52.3215   15.2758 C   0  0  0  0  0  0  0  0  0  0  0  0
   16.5645   52.9132   14.0676 N   0  0  0  0  0  0  0  0  0  0  0  0
   16.3132   54.2493   13.6785 C   0  0  0  0  0  0  0  0  0  0  0  0
   15.2976   55.0466   14.1422 C   0  0  0  0  0  0  0  0  0  0  0  0
   15.1770   56.3606   13.6577 C   0  0  0  0  0  0  0  0  0  0  0  0
   16.0368   56.8902   12.7322 C   0  0  0  0  0  0  0  0  0  0  0  0
   15.9255   58.2742   12.2093 C   0  0  0  0  0  0  0  0  0  0  0  0
   15.6946   59.2844   13.3246 C   0  0  0  0  0  0  0  0  0  0  0  0
   14.9646   60.4001   12.6137 C   0  0  0  0  0  0  0  0  0  0  0  0
   14.5967   59.9198   11.3144 N   0  0  0  0  0  0  0  0  0  0  0  0
   14.6957   58.4668   11.3657 C   0  0  0  0  0  0  0  0  0  0  0  0
   17.0558   56.1030   12.2613 C   0  0  0  0  0  0  0  0  0  0  0  0
   17.1733   54.8194   12.7348 C   0  0  0  0  0  0  0  0  0  0  0  0
   16.8303   51.1335   15.7626 N   0  0  0  0  0  0  0  0  0  0  0  0
   16.1634   50.2598   16.6662 C   0  0  0  0  0  0  0  0  0  0  0  0
   14.8217   50.3774   16.9729 C   0  0  0  0  0  0  0  0  0  0  0  0
   14.1959   49.5129   17.8567 C   0  0  0  0  0  0  0  0  0  0  0  0
   14.8888   48.4921   18.4720 C   0  0  0  0  0  0  0  0  0  0  0  0
   14.2167   47.5551   19.4280 C   0  0  0  0  0  0  0  0  0  0  0  0
   15.1491   46.7325   20.0055 F   0  0  0  0  0  0  0  0  0  0  0  0
   13.2096   46.8407   18.8129 F   0  0  0  0  0  0  0  0  0  0  0  0
   13.6197   48.3187   20.4133 F   0  0  0  0  0  0  0  0  0  0  0  0
   16.2287   48.3687   18.1704 C   0  0  0  0  0  0  0  0  0  0  0  0
   16.8503   49.2350   17.2864 C   0  0  0  0  0  0  0  0  0  0  0  0
  1  2  2  0
  2  3  1  0
  3  4  1  0
  4  5  2  0
  5  6  1  0
  6  7  2  0
  7  8  1  0
  8  9  1  0
  9 10  1  0
 10 11  1  0
 11 12  1  0
  7 13  1  0
 13 14  2  0
  2 15  1  0
 15 16  1  0
 16 17  2  0
 17 18  1  0
 18 19  2  0
 19 20  1  0
 20 21  1  0
 20 22  1  0
 20 23  1  0
 19 24  1  0
 24 25  2  0
 14  4  1  0
 25 16  1  0
 12  8  1  0
M  END
$$$$
