
     RDKit          3D

 30 32  0  0  0  0  0  0  0  0999 V2000
   -9.7570   73.3523   30.8113 C   0  0  0  0  0  0  0  0  0  0  0  0
   -9.7269   71.9185   30.6970 N   0  0  0  0  0  0  0  0  0  0  0  0
  -10.7504   71.1375   30.2965 C   0  0  0  0  0  0  0  0  0  0  0  0
  -10.2619   69.8559   30.3450 C   0  0  0  0  0  0  0  0  0  0  0  0
   -8.9554   69.8797   30.7721 C   0  0  0  0  0  0  0  0  0  0  0  0
   -8.1091   68.7085   30.9477 C   0  0  0  0  0  0  0  0  0  0  0  0
   -8.6042   67.5683   30.7662 O   0  0  0  0  0  0  0  0  0  0  0  0
   -6.7559   68.7645   31.3111 N   0  0  0  0  0  0  0  0  0  0  0  0
   -5.9687   67.6059   31.3436 C   0  0  0  0  0  0  0  0  0  0  0  0
   -4.7717   67.2158   31.3932 N   0  0  0  0  0  0  0  0  0  0  0  0
   -4.3156   66.0460   31.4174 C   0  0  0  0  0  0  0  0  0  0  0  0
   -5.2575   64.9718   31.3856 C   0  0  0  0  0  0  0  0  0  0  0  0
   -5.0740   63.2634   31.3983 S   0  0  0  0  0  0  0  0  0  0  0  0
   -3.3927   62.6929   31.0414 C   0  0  0  0  0  0  0  0  0  0  0  0
   -3.4147   61.2320   30.8529 C   0  0  0  0  0  0  0  0  0  0  0  0
   -2.2374   60.5268   30.7842 C   0  0  0  0  0  0  0  0  0  0  0  0
   -2.2075   59.1545   30.6110 C   0  0  0  0  0  0  0  0  0  0  0  0
   -0.9030   58.4680   30.5482 C   0  0  0  0  0  0  0  0  0  0  0  0
   -0.9526   57.1950   31.0864 F   0  0  0  0  0  0  0  0  0  0  0  0
    0.0497   59.2265   31.1850 F   0  0  0  0  0  0  0  0  0  0  0  0
   -0.5342   58.4105   29.2127 F   0  0  0  0  0  0  0  0  0  0  0  0
   -3.4158   58.4866   30.5054 C   0  0  0  0  0  0  0  0  0  0  0  0
   -4.6215   59.1566   30.5691 C   0  0  0  0  0  0  0  0  0  0  0  0
   -5.9209   58.4453   30.4567 C   0  0  0  0  0  0  0  0  0  0  0  0
   -5.7496   57.1586   30.8975 F   0  0  0  0  0  0  0  0  0  0  0  0
   -6.8538   59.1397   31.1979 F   0  0  0  0  0  0  0  0  0  0  0  0
   -6.2445   58.4275   29.1019 F   0  0  0  0  0  0  0  0  0  0  0  0
   -4.5959   60.5360   30.7440 C   0  0  0  0  0  0  0  0  0  0  0  0
   -6.8180   65.9482   31.3184 S   0  0  0  0  0  0  0  0  0  0  0  0
   -8.6685   71.1752   30.9773 N   0  0  0  0  0  0  0  0  0  0  0  0
  1  2  1  0
  2  3  1  0
  3  4  2  0
  4  5  1  0
  5  6  1  0
  6  7  2  0
  6  8  1  0
  8  9  1  0
  9 10  2  0
 10 11  1  0
 11 12  2  0
 12 13  1  0
 13 14  1  0
 14 15  1  0
 15 16  2  0
 16 17  1  0
 17 18  1  0
 18 19  1  0
 18 20  1  0
 18 21  1  0
 17 22  2  0
 22 23  1  0
 23 24  1  0
 24 25  1  0
 24 26  1  0
 24 27  1  0
 23 28  2  0
 12 29  1  0
  5 30  2  0
 30  2  1  0
 29  9  1  0
 28 15  1  0
M  END
$$$$
