
     RDKit          3D

 30 33  0  0  0  0  0  0  0  0999 V2000
   18.9012   52.4043   13.7884 C   0  0  0  0  0  0  0  0  0  0  0  0
   17.6651   52.6944   14.6490 C   0  0  2  0  0  0  0  0  0  0  0  0
   16.7278   51.6024   14.5664 N   0  0  0  0  0  0  0  0  0  0  0  0
   16.1965   51.0452   15.7718 C   0  0  0  0  0  0  0  0  0  0  0  0
   16.3858   51.6618   16.8497 O   0  0  0  0  0  0  0  0  0  0  0  0
   15.4396   49.7817   15.7949 C   0  0  0  0  0  0  0  0  0  0  0  0
   14.8522   49.5648   17.1213 C   0  0  0  0  0  0  0  0  0  0  0  0
   15.4182   48.7072   18.0291 C   0  0  0  0  0  0  0  0  0  0  0  0
   14.8431   48.5139   19.2769 C   0  0  0  0  0  0  0  0  0  0  0  0
   13.6788   49.1850   19.6378 C   0  0  0  0  0  0  0  0  0  0  0  0
   13.0985   49.0089   20.8586 F   0  0  0  0  0  0  0  0  0  0  0  0
   13.1131   50.0384   18.7378 C   0  0  0  0  0  0  0  0  0  0  0  0
   13.6848   50.2255   17.5076 C   0  0  0  0  0  0  0  0  0  0  0  0
   13.1079   51.0773   16.6290 F   0  0  0  0  0  0  0  0  0  0  0  0
   17.0479   53.9870   14.2363 C   0  0  0  0  0  0  0  0  0  0  0  0
   15.8201   54.0272   13.6182 C   0  0  0  0  0  0  0  0  0  0  0  0
   15.2450   55.2450   13.2337 C   0  0  0  0  0  0  0  0  0  0  0  0
   15.8905   56.4481   13.4641 C   0  0  0  0  0  0  0  0  0  0  0  0
   15.3398   57.6330   13.0610 C   0  0  0  0  0  0  0  0  0  0  0  0
   14.0036   57.7773   12.5451 C   0  0  0  0  0  0  0  0  0  0  0  0
   13.0130   56.8930   12.9403 N   0  0  0  0  0  0  0  0  0  0  0  0
   11.8803   57.2247   12.4230 O   0  0  0  0  0  0  0  0  0  0  0  0
   12.0122   58.2905   11.6856 C   0  0  0  0  0  0  0  0  0  0  0  0
   11.1390   58.9115   11.0241 O   0  0  0  0  0  0  0  0  0  0  0  0
   13.3496   58.6246   11.7707 N   0  0  0  0  0  0  0  0  0  0  0  0
   16.1022   58.8073   13.3034 C   0  0  0  0  0  0  0  0  0  0  0  0
   17.3229   58.7287   13.9167 C   0  0  0  0  0  0  0  0  0  0  0  0
   17.8375   57.5556   14.3064 N   0  0  0  0  0  0  0  0  0  0  0  0
   17.1446   56.4140   14.0920 C   0  0  0  0  0  0  0  0  0  0  0  0
   17.6586   55.1987   14.4452 C   0  0  0  0  0  0  0  0  0  0  0  0
  2  1  1  6
  2  3  1  0
  3  4  1  0
  4  5  2  0
  4  6  1  0
  6  7  1  0
  7  8  2  0
  8  9  1  0
  9 10  2  0
 10 11  1  0
 10 12  1  0
 12 13  2  0
 13 14  1  0
  2 15  1  0
 15 16  2  0
 16 17  1  0
 17 18  2  0
 18 19  1  0
 19 20  1  0
 20 21  2  0
 21 22  1  0
 22 23  1  0
 23 24  2  0
 23 25  1  0
 19 26  2  0
 26 27  1  0
 27 28  2  0
 28 29  1  0
 29 30  2  0
 13  7  1  0
 30 15  1  0
 29 18  1  0
 25 20  1  0
M  END
$$$$
