
     RDKit          3D

 22 24  0  0  0  0  0  0  0  0999 V2000
    7.2822   91.9858   65.4787 C   0  0  0  0  0  0  0  0  0  0  0  0
    8.2850   92.3339   64.4315 C   0  0  0  0  0  0  0  0  0  0  0  0
    8.6479   91.3057   63.4197 C   0  0  0  0  0  0  0  0  0  0  0  0
    8.8606   93.5152   64.3693 C   0  0  0  0  0  0  0  0  0  0  0  0
    9.7550   93.9220   63.2192 C   0  0  0  0  0  0  0  0  0  0  0  0
   10.3579   95.2387   63.6289 C   0  0  0  0  0  0  0  0  0  0  0  0
   11.5070   95.6529   62.7862 C   0  0  0  0  0  0  0  0  0  0  0  0
   11.5940   96.6466   61.8477 C   0  0  0  0  0  0  0  0  0  0  0  0
   12.8249   96.6827   61.3152 N   0  0  0  0  0  0  0  0  0  0  0  0
   13.5402   95.7269   61.8932 C   0  0  0  0  0  0  0  0  0  0  0  0
   14.7994   95.3778   61.6991 O   0  0  0  0  0  0  0  0  0  0  0  0
   15.3837   94.4056   62.3453 C   0  0  0  0  0  0  0  0  0  0  0  0
   14.6688   93.6956   63.2811 C   0  0  0  0  0  0  0  0  0  0  0  0
   15.3221   92.6000   64.0118 C   0  0  0  0  0  0  0  0  0  0  0  0
   13.3510   94.0279   63.5143 C   0  0  0  0  0  0  0  0  0  0  0  0
   12.6749   93.4030   64.3570 O   0  0  0  0  0  0  0  0  0  0  0  0
   12.7556   95.0650   62.8134 C   0  0  0  0  0  0  0  0  0  0  0  0
   13.0576   97.7011   60.2978 C   0  0  0  0  0  0  0  0  0  0  0  0
   11.8474   97.6901   59.3925 C   0  0  2  0  0  0  0  0  0  0  0  0
   12.0980   98.7799   58.3403 C   0  0  0  0  0  0  0  0  0  0  0  0
   10.6539   97.8781   60.0232 O   0  0  0  0  0  0  0  0  0  0  0  0
   10.5970   97.6297   61.3615 C   0  0  0  0  0  3  0  0  0  0  0  0
  1  2  1  0
  2  3  1  0
  2  4  2  3
  4  5  1  0
  5  6  1  0
  6  7  1  0
  7  8  2  0
  8  9  1  0
  9 10  1  0
 10 11  1  0
 11 12  1  0
 12 13  2  0
 13 14  1  0
 13 15  1  0
 15 16  2  0
 15 17  1  0
  9 18  1  0
 18 19  1  0
 19 20  1  6
 19 21  1  0
 21 22  1  0
 17  7  1  0
 22  8  1  0
 17 10  2  0
M  RAD  1  22   2
M  END
$$$$
