
     RDKit          3D

 30 32  0  0  0  0  0  0  0  0999 V2000
   -6.1707   65.8476   30.9106 C   0  0  0  0  0  0  0  0  0  0  0  0
   -5.8792   64.4299   31.2299 C   0  0  0  0  0  0  0  0  0  0  0  0
   -6.7246   63.4061   30.5394 C   0  0  0  0  0  0  0  0  0  0  0  0
   -6.5349   62.0728   30.9489 N   0  0  0  0  0  0  0  0  0  0  0  0
   -7.6654   61.3421   31.3464 C   0  0  0  0  0  0  0  0  0  0  0  0
   -7.8390   60.0092   30.6802 C   0  0  0  0  0  0  0  0  0  0  0  0
   -8.6471   59.1102   31.4103 N   0  0  0  0  0  0  0  0  0  0  0  0
   -8.2583   57.7486   31.4548 C   0  0  0  0  0  0  0  0  0  0  0  0
   -9.1483   56.8147   30.6565 C   0  0  0  0  0  0  0  0  0  0  0  0
  -10.4728   57.3259   30.4517 N   0  0  0  0  0  0  0  0  0  0  0  0
  -11.2554   56.8438   29.3840 C   0  0  0  0  0  0  0  0  0  0  0  0
  -10.7929   56.0502   28.5113 O   0  0  0  0  0  0  0  0  0  0  0  0
  -12.5865   57.2030   29.2121 O   0  0  0  0  0  0  0  0  0  0  0  0
  -13.3351   56.8273   28.0654 C   0  0  0  0  0  0  0  0  0  0  0  0
  -14.6260   57.5823   27.9831 C   0  0  0  0  0  0  0  0  0  0  0  0
  -13.5866   55.3313   28.1262 C   0  0  0  0  0  0  0  0  0  0  0  0
  -12.4637   57.1386   26.8629 C   0  0  0  0  0  0  0  0  0  0  0  0
  -10.9910   58.3296   31.3402 C   0  0  0  0  0  0  0  0  0  0  0  0
  -10.0043   59.4313   31.6030 C   0  0  0  0  0  0  0  0  0  0  0  0
   -5.2457   61.5484   31.0399 C   0  0  0  0  0  0  0  0  0  0  0  0
   -4.7144   61.3941   32.4541 C   0  0  0  0  0  0  0  0  0  0  0  0
   -3.2128   61.5052   32.3910 C   0  0  0  0  0  0  0  0  0  0  0  0
   -2.6930   60.7007   31.2482 C   0  0  0  0  0  0  0  0  0  0  0  0
   -1.2966   60.5625   31.2000 C   0  0  0  0  0  0  0  0  0  0  0  0
   -0.7380   59.8368   30.1781 C   0  0  0  0  0  0  0  0  0  0  0  0
    0.6187   59.6846   30.1044 F   0  0  0  0  0  0  0  0  0  0  0  0
   -1.5003   59.2346   29.1904 C   0  0  0  0  0  0  0  0  0  0  0  0
   -2.8673   59.3933   29.2723 C   0  0  0  0  0  0  0  0  0  0  0  0
   -3.4739   60.1158   30.2842 C   0  0  0  0  0  0  0  0  0  0  0  0
   -4.9736   60.2513   30.3249 C   0  0  0  0  0  0  0  0  0  0  0  0
  1  2  1  0
  2  3  1  0
  3  4  1  0
  4  5  1  0
  5  6  1  0
  6  7  1  0
  7  8  1  0
  8  9  1  0
  9 10  1  0
 10 11  1  0
 11 12  2  0
 11 13  1  0
 13 14  1  0
 14 15  1  0
 14 16  1  0
 14 17  1  0
 10 18  1  0
 18 19  1  0
  4 20  1  0
 20 21  1  0
 21 22  1  0
 22 23  1  0
 23 24  2  0
 24 25  1  0
 25 26  1  0
 25 27  2  0
 27 28  1  0
 28 29  2  0
 29 30  1  0
 19  7  1  0
 30 20  1  0
 29 23  1  0
M  END
$$$$
