
     RDKit          3D

 18 19  0  0  0  0  0  0  0  0999 V2000
   33.8351   81.9545   49.7345 O   0  0  0  0  0  0  0  0  0  0  0  0
   32.6791   82.4394   49.6869 C   0  0  0  0  0  0  0  0  0  0  0  0
   32.1376   82.8728   48.4501 N   0  0  0  0  0  0  0  0  0  0  0  0
   32.7943   82.6872   47.1900 C   0  0  0  0  0  0  0  0  0  0  0  0
   32.1147   81.6503   46.3185 C   0  0  2  0  0  0  0  0  0  0  0  0
   33.1776   81.0080   45.4623 C   0  0  0  0  0  0  0  0  0  0  0  0
   32.7949   81.3036   44.0173 C   0  0  0  0  0  0  0  0  0  0  0  0
   31.3306   81.3863   44.1366 N   0  0  0  0  0  0  0  0  0  0  0  0
   31.2278   82.3035   45.2796 C   0  0  0  0  0  0  0  0  0  0  0  0
   31.9397   82.5310   50.9412 C   0  0  0  0  0  0  0  0  0  0  0  0
   32.5882   82.6400   52.1627 C   0  0  0  0  0  0  0  0  0  0  0  0
   31.8790   82.7245   53.3373 C   0  0  0  0  0  0  0  0  0  0  0  0
   30.5025   82.7041   53.3423 C   0  0  0  0  0  0  0  0  0  0  0  0
   29.7990   82.7871   54.4986 F   0  0  0  0  0  0  0  0  0  0  0  0
   29.8397   82.5972   52.1480 C   0  0  0  0  0  0  0  0  0  0  0  0
   28.0754   82.5689   52.1291 Cl  0  0  0  0  0  0  0  0  0  0  0  0
   30.5501   82.5134   50.9844 C   0  0  0  0  0  0  0  0  0  0  0  0
   29.7117   82.3765   49.4442 Cl  0  0  0  0  0  0  0  0  0  0  0  0
  1  2  2  0
  2  3  1  0
  3  4  1  0
  5  4  1  1
  5  6  1  0
  6  7  1  0
  7  8  1  0
  8  9  1  0
  2 10  1  0
 10 11  2  0
 11 12  1  0
 12 13  2  0
 13 14  1  0
 13 15  1  0
 15 16  1  0
 15 17  2  0
 17 18  1  0
  9  5  1  0
 17 10  1  0
M  END
$$$$
