
     RDKit          3D

 24 26  0  0  0  0  0  0  0  0999 V2000
   13.4329   94.8272   63.3583 C   0  0  0  0  0  0  0  0  0  0  0  0
   12.8777   94.8345   62.1586 C   0  0  0  0  0  0  0  0  0  0  0  0
   11.6407   95.6195   61.9293 C   0  0  0  0  0  0  0  0  0  0  0  0
   11.8350   96.6433   60.9192 N   0  0  0  0  0  0  0  0  0  0  0  0
   10.9282   97.7141   60.7080 C   0  0  0  0  0  0  0  0  0  0  0  0
    9.8901   97.7103   61.4154 O   0  0  0  0  0  0  0  0  0  0  0  0
   11.1921   98.7564   59.7247 C   0  0  0  0  0  0  0  0  0  0  0  0
   10.3072   99.7852   59.4803 C   0  0  0  0  0  0  0  0  0  0  0  0
   10.6310  100.7263   58.5350 C   0  0  0  0  0  0  0  0  0  0  0  0
    9.6370  101.8359   58.2974 C   0  0  0  0  0  0  0  0  0  0  0  0
   11.7782  100.6933   57.8308 N   0  0  0  0  0  0  0  0  0  0  0  0
   12.6659   99.7059   58.0412 C   0  0  0  0  0  0  0  0  0  0  0  0
   12.3669   98.7286   58.9987 C   0  0  0  0  0  0  0  0  0  0  0  0
   13.4331   97.8218   59.0322 C   0  0  0  0  0  0  0  0  0  0  0  0
   13.4731   96.8257   59.7903 O   0  0  0  0  0  0  0  0  0  0  0  0
   14.3120   98.2577   58.1300 N   0  0  0  0  0  0  0  0  0  0  0  0
   13.8660   99.3740   57.5377 N   0  0  0  0  0  0  0  0  0  0  0  0
   14.5670  100.1219   56.5161 C   0  0  0  0  0  0  0  0  0  0  0  0
   14.0912   99.7262   55.1515 C   0  0  0  0  0  0  0  0  0  0  0  0
   14.1735  100.5858   54.0846 C   0  0  0  0  0  0  0  0  0  0  0  0
   13.7339  100.2230   52.8172 C   0  0  0  0  0  0  0  0  0  0  0  0
   13.2029   98.9650   52.6386 C   0  0  0  0  0  0  0  0  0  0  0  0
   13.1359   98.1304   53.7299 C   0  0  0  0  0  0  0  0  0  0  0  0
   13.5707   98.4967   54.9712 N   0  0  0  0  0  0  0  0  0  0  0  0
  1  2  2  0
  2  3  1  0
  3  4  1  0
  4  5  1  0
  5  6  2  0
  5  7  1  0
  7  8  2  0
  8  9  1  0
  9 10  1  0
  9 11  2  0
 11 12  1  0
 12 13  2  0
 13 14  1  0
 14 15  2  0
 14 16  1  0
 16 17  1  0
 17 18  1  0
 18 19  1  0
 19 20  2  0
 20 21  1  0
 21 22  2  0
 22 23  1  0
 23 24  2  0
 13  7  1  0
 24 19  1  0
 17 12  1  0
M  END
$$$$
