
     RDKit          3D

 26 28  0  0  0  0  0  0  0  0999 V2000
   17.9848   50.9027   10.7814 C   0  0  0  0  0  0  0  0  0  0  0  0
   18.4671   52.0734   11.3963 O   0  0  0  0  0  0  0  0  0  0  0  0
   17.5949   52.8611   12.1357 C   0  0  0  0  0  0  0  0  0  0  0  0
   16.6653   52.3239   13.0144 C   0  0  0  0  0  0  0  0  0  0  0  0
   15.8041   53.1162   13.7436 C   0  0  0  0  0  0  0  0  0  0  0  0
   14.8552   52.4662   14.6484 C   0  0  0  0  0  0  0  0  0  0  0  0
   15.4253   51.6096   15.6284 N   0  0  0  0  0  0  0  0  0  0  0  0
   16.6365   52.0089   16.3071 C   0  0  0  0  0  0  0  0  0  0  0  0
   14.8528   50.3661   15.9747 C   0  0  0  0  0  0  0  0  0  0  0  0
   13.9982   49.8234   15.2293 O   0  0  0  0  0  0  0  0  0  0  0  0
   15.2296   49.6682   17.2035 C   0  0  0  0  0  0  0  0  0  0  0  0
   16.5582   49.3589   17.4785 C   0  0  0  0  0  0  0  0  0  0  0  0
   16.8505   48.7003   18.6531 C   0  0  0  0  0  0  0  0  0  0  0  0
   18.2691   48.3377   19.0080 C   0  0  0  0  0  0  0  0  0  0  0  0
   15.8817   48.3589   19.5219 N   0  0  0  0  0  0  0  0  0  0  0  0
   14.5901   48.6505   19.2715 C   0  0  0  0  0  0  0  0  0  0  0  0
   13.4558   48.4639   19.8866 O   0  0  0  0  0  0  0  0  0  0  0  0
   12.4660   48.9357   19.2261 N   0  0  0  0  0  0  0  0  0  0  0  0
   12.8842   49.4922   18.0794 C   0  0  0  0  0  0  0  0  0  0  0  0
   12.0218   50.1345   17.0675 C   0  0  0  0  0  0  0  0  0  0  0  0
   14.2588   49.3185   18.0882 C   0  0  0  0  0  0  0  0  0  0  0  0
   15.9024   54.4800   13.5646 C   0  0  0  0  0  0  0  0  0  0  0  0
   16.8200   55.0338   12.6957 C   0  0  0  0  0  0  0  0  0  0  0  0
   17.6647   54.2339   11.9820 C   0  0  0  0  0  0  0  0  0  0  0  0
   18.8700   54.9185   10.8435 S   0  0  0  0  0  0  0  0  0  0  0  0
   18.2613   54.7811    9.1512 C   0  0  0  0  0  0  0  0  0  0  0  0
  1  2  1  0
  2  3  1  0
  3  4  2  0
  4  5  1  0
  5  6  1  0
  6  7  1  0
  7  8  1  0
  7  9  1  0
  9 10  2  0
  9 11  1  0
 11 12  2  0
 12 13  1  0
 13 14  1  0
 13 15  2  0
 15 16  1  0
 16 17  1  0
 17 18  1  0
 18 19  2  0
 19 20  1  0
 19 21  1  0
  5 22  2  0
 22 23  1  0
 23 24  2  0
 24 25  1  0
 25 26  1  0
 24  3  1  0
 21 11  1  0
 21 16  2  0
M  END
$$$$
