
     RDKit          3D

 25 27  0  0  0  0  0  0  0  0999 V2000
   15.2322  100.5883   53.6031 C   0  0  0  0  0  0  0  0  0  0  0  0
   13.7251  100.5704   53.4666 C   0  0  0  0  0  0  0  0  0  0  0  0
   13.3153  101.8667   52.7965 C   0  0  0  0  0  0  0  0  0  0  0  0
   13.1410  100.5873   54.8378 C   0  0  0  0  0  0  0  0  0  0  0  0
   12.0981  101.3635   55.1366 N   0  0  0  0  0  0  0  0  0  0  0  0
   11.5241  101.4281   56.3469 C   0  0  0  0  0  0  0  0  0  0  0  0
   12.0274  100.6488   57.3701 C   0  0  0  0  0  0  0  0  0  0  0  0
   13.1046   99.8415   57.0769 C   0  0  0  0  0  0  0  0  0  0  0  0
   13.6289   99.8295   55.8361 N   0  0  0  0  0  0  0  0  0  0  0  0
   13.5058   99.0704   58.3096 C   0  0  0  0  0  0  0  0  0  0  0  0
   12.2917   99.1588   59.0774 N   0  0  0  0  0  0  0  0  0  0  0  0
   11.7721   98.1807   59.9493 C   0  0  0  0  0  0  0  0  0  0  0  0
   10.5582   98.2343   60.2849 O   0  0  0  0  0  0  0  0  0  0  0  0
   12.6138   97.0827   60.4884 C   0  0  0  0  0  0  0  0  0  0  0  0
   11.9575   96.4776   61.5525 O   0  0  0  0  0  0  0  0  0  0  0  0
   12.3198   95.4080   62.3038 C   0  0  0  0  0  0  0  0  0  0  0  0
   13.6591   95.0221   62.2613 C   0  0  0  0  0  0  0  0  0  0  0  0
   14.0762   93.9471   63.0044 C   0  0  0  0  0  0  0  0  0  0  0  0
   13.1791   93.2532   63.7874 C   0  0  0  0  0  0  0  0  0  0  0  0
   13.6064   92.1352   64.5616 N   0  0  0  0  0  0  0  0  0  0  0  0
   12.6754   91.3193   65.3113 C   0  0  0  0  0  0  0  0  0  0  0  0
   15.0087   91.8028   64.6018 C   0  0  0  0  0  0  0  0  0  0  0  0
   11.8592   93.6407   63.8240 C   0  0  0  0  0  0  0  0  0  0  0  0
   11.4143   94.7362   63.0722 C   0  0  0  0  0  0  0  0  0  0  0  0
   11.7030  100.4334   58.7903 C   0  0  0  0  0  0  0  0  0  0  0  0
  1  2  1  0
  2  3  1  0
  2  4  1  0
  4  5  2  0
  5  6  1  0
  6  7  2  0
  7  8  1  0
  8  9  2  0
  8 10  1  0
 10 11  1  0
 11 12  1  0
 12 13  2  0
 12 14  1  0
 14 15  1  0
 15 16  1  0
 16 17  2  0
 17 18  1  0
 18 19  2  0
 19 20  1  0
 20 21  1  0
 20 22  1  0
 19 23  1  0
 23 24  2  0
 11 25  1  0
  9  4  1  0
 24 16  1  0
 25  7  1  0
M  END
$$$$
