
     RDKit          3D

 27 30  0  0  0  0  0  0  0  0999 V2000
   17.2271   53.0677   12.4676 C   0  0  0  0  0  0  0  0  0  0  0  0
   15.9998   53.9035   12.7496 C   0  0  0  0  0  0  0  0  0  0  0  0
   16.3556   55.2824   13.0037 N   0  0  0  0  0  0  0  0  0  0  0  0
   16.5835   56.0408   11.8243 C   0  0  0  0  0  0  0  0  0  0  0  0
   15.4266   56.8066   11.2996 C   0  0  0  0  0  0  0  0  0  0  0  0
   14.1070   56.4873   11.9022 C   0  0  0  0  0  0  0  0  0  0  0  0
   13.2200   57.6255   11.6498 N   0  0  0  0  0  0  0  0  0  0  0  0
   12.1926   57.6875   10.7886 C   0  0  0  0  0  0  0  0  0  0  0  0
   11.6046   58.8835   10.8212 N   0  0  0  0  0  0  0  0  0  0  0  0
   12.2509   59.6424   11.7242 C   0  0  0  0  0  0  0  0  0  0  0  0
   12.0722   60.9593   12.1659 C   0  0  0  0  0  0  0  0  0  0  0  0
   11.0387   61.7372   11.6236 N   0  0  0  0  0  0  0  0  0  0  0  0
   10.6701   62.9737   12.2690 C   0  0  0  0  0  0  0  0  0  0  0  0
   11.5218   64.1093   11.8347 C   0  0  0  0  0  0  0  0  0  0  0  0
   11.8308   64.3478   10.5123 C   0  0  0  0  0  0  0  0  0  0  0  0
   12.6285   65.4167   10.1408 C   0  0  0  0  0  0  0  0  0  0  0  0
   13.1433   66.2820   11.0792 C   0  0  0  0  0  0  0  0  0  0  0  0
   12.8374   66.0472   12.3981 C   0  0  0  0  0  0  0  0  0  0  0  0
   13.6237   67.3695   13.8377 I   0  0  0  0  0  0  0  0  0  0  0  0
   12.0453   64.9854   12.7650 C   0  0  0  0  0  0  0  0  0  0  0  0
   12.9254   61.3889   13.0989 N   0  0  0  0  0  0  0  0  0  0  0  0
   13.9002   60.6051   13.5877 C   0  0  0  0  0  0  0  0  0  0  0  0
   14.0867   59.3387   13.1757 N   0  0  0  0  0  0  0  0  0  0  0  0
   13.2550   58.8446   12.2321 C   0  0  0  0  0  0  0  0  0  0  0  0
   14.1285   56.2636   13.3767 C   0  0  0  0  0  0  0  0  0  0  0  0
   13.6114   57.3652   14.0759 O   0  0  0  0  0  0  0  0  0  0  0  0
   15.4939   55.9490   13.9198 C   0  0  0  0  0  0  0  0  0  0  0  0
  1  2  1  0
  2  3  1  0
  3  4  1  0
  4  5  1  0
  5  6  1  0
  6  7  1  0
  7  8  1  0
  8  9  2  0
  9 10  1  0
 10 11  2  0
 11 12  1  0
 12 13  1  0
 13 14  1  0
 14 15  2  0
 15 16  1  0
 16 17  2  0
 17 18  1  0
 18 19  1  0
 18 20  2  0
 11 21  1  0
 21 22  2  0
 22 23  1  0
 23 24  2  0
  6 25  1  0
 25 26  1  0
 25 27  1  0
 27  3  1  0
 24  7  1  0
 24 10  1  0
 20 14  1  0
M  END
$$$$
