
     RDKit          3D

 23 26  0  0  0  0  0  0  0  0999 V2000
   -3.6082   65.1712   32.5141 C   0  0  0  0  0  0  0  0  0  0  0  0
   -4.1382   63.9368   31.9110 C   0  0  0  0  0  0  0  0  0  0  0  0
   -5.4782   63.7725   31.6504 C   0  0  0  0  0  0  0  0  0  0  0  0
   -5.9537   62.6133   31.0872 C   0  0  0  0  0  0  0  0  0  0  0  0
   -5.0601   61.6171   30.7880 C   0  0  0  0  0  0  0  0  0  0  0  0
   -3.7280   61.7621   31.0391 C   0  0  0  0  0  0  0  0  0  0  0  0
   -3.2614   62.9233   31.6020 C   0  0  0  0  0  0  0  0  0  0  0  0
   -3.0785   60.6166   30.6415 C   0  0  0  0  0  0  0  0  0  0  0  0
   -4.0721   59.7970   30.1499 C   0  0  0  0  0  0  0  0  0  0  0  0
   -5.2705   60.4026   30.2388 N   0  0  0  0  0  0  0  0  0  0  0  0
   -6.5084   59.8222   29.8162 C   0  0  0  0  0  0  0  0  0  0  0  0
   -7.2386   59.1025   30.9221 C   0  0  0  0  0  0  0  0  0  0  0  0
   -8.1706   58.0713   30.3263 C   0  0  0  0  0  0  0  0  0  0  0  0
   -9.5509   58.2508   30.7217 N   0  0  0  0  0  0  0  0  0  0  0  0
   -9.6535   57.7571   32.1037 C   0  0  0  0  0  0  0  0  0  0  0  0
  -11.0484   58.0690   32.5818 C   0  0  0  0  0  0  0  0  0  0  0  0
  -12.0398   57.2152   31.8415 C   0  0  0  0  0  0  0  0  0  0  0  0
  -11.3642   56.5847   30.6636 C   0  0  0  0  0  0  0  0  0  0  0  0
  -10.4735   57.5003   29.8897 C   0  0  0  0  0  0  0  0  0  0  0  0
   -3.6010   58.4588   29.6449 C   0  0  0  0  0  0  0  0  0  0  0  0
   -2.6008   57.9276   30.6765 C   0  0  0  0  0  0  0  0  0  0  0  0
   -1.3801   58.7950   30.7010 C   0  0  0  0  0  0  0  0  0  0  0  0
   -1.6570   60.2579   30.6891 C   0  0  0  0  0  0  0  0  0  0  0  0
  1  2  1  0
  2  3  2  0
  3  4  1  0
  4  5  2  0
  5  6  1  0
  6  7  2  0
  6  8  1  0
  8  9  2  0
  9 10  1  0
 10 11  1  0
 11 12  1  0
 12 13  1  0
 13 14  1  0
 14 15  1  0
 15 16  1  0
 16 17  1  0
 17 18  1  0
 18 19  1  0
  9 20  1  0
 20 21  1  0
 21 22  1  0
 22 23  1  0
  7  2  1  0
 23  8  1  0
 10  5  1  0
 19 14  1  0
M  END
$$$$
