
     RDKit          3D

 20 22  0  0  0  0  0  0  0  0999 V2000
   18.4086   54.2401   14.6194 C   0  0  0  0  0  0  0  0  0  0  0  0
   17.0366   53.8032   15.1220 C   0  0  1  0  0  0  0  0  0  0  0  0
   16.0649   54.1475   14.0585 C   0  0  0  0  0  0  0  0  0  0  0  0
   15.8269   53.3328   13.1384 O   0  0  0  0  0  0  0  0  0  0  0  0
   15.4014   55.4021   14.0806 N   0  0  0  0  0  0  0  0  0  0  0  0
   14.5717   55.8826   13.0267 C   0  0  0  0  0  0  0  0  0  0  0  0
   13.2587   56.4782   13.1988 C   0  0  0  0  0  0  0  0  0  0  0  0
   13.3265   55.0129   12.7711 C   0  0  0  0  0  0  0  0  0  0  0  0
   17.0246   52.3849   15.4302 N   0  0  0  0  0  0  0  0  0  0  0  0
   17.7512   51.4237   14.8374 N   0  0  0  0  0  0  0  0  0  0  0  0
   17.4575   50.2606   15.4000 N   0  0  0  0  0  0  0  0  0  0  0  0
   16.5341   50.4604   16.3662 C   0  0  0  0  0  0  0  0  0  0  0  0
   15.9572   49.4214   17.2122 C   0  0  0  0  0  0  0  0  0  0  0  0
   16.6128   48.2168   17.3656 C   0  0  0  0  0  0  0  0  0  0  0  0
   16.0604   47.2266   18.1734 C   0  0  0  0  0  0  0  0  0  0  0  0
   14.8706   47.4247   18.8241 C   0  0  0  0  0  0  0  0  0  0  0  0
   14.2060   48.6180   18.6816 C   0  0  0  0  0  0  0  0  0  0  0  0
   12.6824   48.8415   19.5290 Cl  0  0  0  0  0  0  0  0  0  0  0  0
   14.7622   49.5790   17.8850 C   0  0  0  0  0  0  0  0  0  0  0  0
   16.2948   51.7816   16.3523 N   0  0  0  0  0  0  0  0  0  0  0  0
  2  1  1  6
  2  3  1  0
  3  4  2  0
  3  5  1  0
  5  6  1  0
  6  7  1  0
  7  8  1  0
  2  9  1  0
  9 10  1  0
 10 11  2  0
 11 12  1  0
 12 13  1  0
 13 14  2  0
 14 15  1  0
 15 16  2  0
 16 17  1  0
 17 18  1  0
 17 19  2  0
 12 20  2  0
  8  6  1  0
 20  9  1  0
 19 13  1  0
M  END
$$$$
