
     RDKit          3D

 26 28  0  0  0  0  0  0  0  0999 V2000
   16.4449   43.8323   22.7845 C   0  0  0  0  0  0  0  0  0  0  0  0
   16.8894   45.2666   22.7381 C   0  0  0  0  0  0  0  0  0  0  0  0
   15.7035   46.1689   22.4794 C   0  0  0  0  0  0  0  0  0  0  0  0
   15.7681   46.7908   21.1789 N   0  0  0  0  0  0  0  0  0  0  0  0
   15.0347   48.0118   21.0751 C   0  0  0  0  0  0  0  0  0  0  0  0
   15.8411   49.1368   20.4747 C   0  0  0  0  0  0  0  0  0  0  0  0
   16.4826   48.6959   19.2719 N   0  0  0  0  0  0  0  0  0  0  0  0
   16.4813   49.4932   18.0977 C   0  0  0  0  0  0  0  0  0  0  0  0
   17.6941   49.7771   17.5192 C   0  0  0  0  0  0  0  0  0  0  0  0
   17.7211   50.5762   16.3688 C   0  0  0  0  0  0  0  0  0  0  0  0
   16.5946   51.0930   15.7857 C   0  0  0  0  0  0  0  0  0  0  0  0
   16.5685   51.9055   14.6344 N   0  0  0  0  0  0  0  0  0  0  0  0
   16.0388   53.1814   14.4787 C   0  0  0  0  0  0  0  0  0  0  0  0
   15.3288   53.6541   15.4199 O   0  0  0  0  0  0  0  0  0  0  0  0
   16.2762   53.9772   13.2785 C   0  0  0  0  0  0  0  0  0  0  0  0
   17.5147   53.8897   12.6347 C   0  0  0  0  0  0  0  0  0  0  0  0
   17.7392   54.6303   11.5070 C   0  0  0  0  0  0  0  0  0  0  0  0
   16.7938   55.4691   10.9666 C   0  0  0  0  0  0  0  0  0  0  0  0
   17.1266   56.4089    9.5049 Cl  0  0  0  0  0  0  0  0  0  0  0  0
   15.5751   55.5683   11.5830 C   0  0  0  0  0  0  0  0  0  0  0  0
   15.3392   54.8118   12.7388 C   0  0  0  0  0  0  0  0  0  0  0  0
   15.3909   50.7677   16.4213 C   0  0  0  0  0  0  0  0  0  0  0  0
   15.3197   49.9833   17.5567 C   0  0  0  0  0  0  0  0  0  0  0  0
   13.9951   49.6778   18.1565 C   0  0  0  0  0  0  0  0  0  0  0  0
   17.1498   47.3880   19.2967 C   0  0  0  0  0  0  0  0  0  0  0  0
   17.1265   46.8822   20.7286 C   0  0  0  0  0  0  0  0  0  0  0  0
  1  2  1  0
  2  3  1  0
  3  4  1  0
  4  5  1  0
  5  6  1  0
  6  7  1  0
  7  8  1  0
  8  9  2  0
  9 10  1  0
 10 11  2  0
 11 12  1  0
 12 13  1  0
 13 14  2  0
 13 15  1  0
 15 16  2  0
 16 17  1  0
 17 18  2  0
 18 19  1  0
 18 20  1  0
 20 21  2  0
 11 22  1  0
 22 23  2  0
 23 24  1  0
  7 25  1  0
 25 26  1  0
 26  4  1  0
 23  8  1  0
 21 15  1  0
M  END
$$$$
