
     RDKit          3D

 36 39  0  0  0  0  0  0  0  0999 V2000
   10.9888   64.6904   11.8368 C   0  0  0  0  0  0  0  0  0  0  0  0
   12.3285   64.4435   12.1598 O   0  0  0  0  0  0  0  0  0  0  0  0
   12.7089   63.5879   13.1711 C   0  0  0  0  0  0  0  0  0  0  0  0
   12.8086   62.2414   12.9003 C   0  0  0  0  0  0  0  0  0  0  0  0
   13.1881   61.3545   13.8916 C   0  0  0  0  0  0  0  0  0  0  0  0
   13.2827   59.9330   13.5753 C   0  0  0  0  0  0  0  0  0  0  0  0
   13.8692   59.0709   14.4160 N   0  0  0  0  0  0  0  0  0  0  0  0
   13.9333   57.7803   14.1098 C   0  0  0  0  0  0  0  0  0  0  0  0
   14.6932   56.5797   15.1909 S   0  0  0  0  0  0  0  0  0  0  0  0
   16.1163   55.7890   14.4034 C   0  0  0  0  0  0  0  0  0  0  0  0
   15.7795   54.4996   13.7397 C   0  0  0  0  0  0  0  0  0  0  0  0
   15.8563   53.4215   14.7625 C   0  0  0  0  0  0  0  0  0  0  0  0
   14.8310   52.5096   14.9333 C   0  0  0  0  0  0  0  0  0  0  0  0
   14.9795   51.5368   15.8929 C   0  0  0  0  0  0  0  0  0  0  0  0
   16.1141   51.4443   16.6854 C   0  0  0  0  0  0  0  0  0  0  0  0
   17.1301   52.3357   16.5267 C   0  0  0  0  0  0  0  0  0  0  0  0
   16.9811   53.3301   15.5473 C   0  0  0  0  0  0  0  0  0  0  0  0
   16.6898   54.1095   12.6320 C   0  0  0  0  0  0  0  0  0  0  0  0
   17.9489   54.6802   12.5602 C   0  0  0  0  0  0  0  0  0  0  0  0
   18.8237   54.3475   11.5526 C   0  0  0  0  0  0  0  0  0  0  0  0
   18.4576   53.4338   10.5916 C   0  0  0  0  0  0  0  0  0  0  0  0
   17.1977   52.8658   10.6675 C   0  0  0  0  0  0  0  0  0  0  0  0
   16.3152   53.1943   11.6748 C   0  0  0  0  0  0  0  0  0  0  0  0
   13.4183   57.3311   12.9693 N   0  0  0  0  0  0  0  0  0  0  0  0
   12.8160   58.1194   12.0737 C   0  0  0  0  0  0  0  0  0  0  0  0
   12.3222   57.7010   10.9845 O   0  0  0  0  0  0  0  0  0  0  0  0
   12.7448   59.4829   12.3916 C   0  0  0  0  0  0  0  0  0  0  0  0
   12.1074   60.3792   11.4946 C   0  0  0  0  0  0  0  0  0  0  0  0
   11.5981   61.1069   10.7457 N   0  0  0  0  0  0  0  0  0  0  0  0
   13.4616   61.8346   15.1424 C   0  0  0  0  0  0  0  0  0  0  0  0
   13.3751   63.1803   15.4618 C   0  0  0  0  0  0  0  0  0  0  0  0
   13.6608   63.6519   16.7536 O   0  0  0  0  0  0  0  0  0  0  0  0
   12.7934   63.2719   17.7916 C   0  0  0  0  0  0  0  0  0  0  0  0
   12.9951   64.0353   14.4516 C   0  0  0  0  0  0  0  0  0  0  0  0
   12.8919   65.3905   14.7129 O   0  0  0  0  0  0  0  0  0  0  0  0
   13.8142   66.2769   14.0877 C   0  0  0  0  0  0  0  0  0  0  0  0
  1  2  1  0
  2  3  1  0
  3  4  2  0
  4  5  1  0
  5  6  1  0
  6  7  1  0
  7  8  2  0
  8  9  1  0
  9 10  1  0
 10 11  1  0
 11 12  1  0
 12 13  2  0
 13 14  1  0
 14 15  2  0
 15 16  1  0
 16 17  2  0
 11 18  1  0
 18 19  2  0
 19 20  1  0
 20 21  2  0
 21 22  1  0
 22 23  2  0
  8 24  1  0
 24 25  1  0
 25 26  2  0
 25 27  1  0
 27 28  1  0
 28 29  3  0
  5 30  2  0
 30 31  1  0
 31 32  1  0
 32 33  1  0
 31 34  2  0
 34 35  1  0
 35 36  1  0
 34  3  1  0
 27  6  2  0
 17 12  1  0
 23 18  1  0
M  END
$$$$
