
     RDKit          3D

 35 39  0  0  0  0  0  0  0  0999 V2000
   16.5353  100.3329   47.9869 C   0  0  0  0  0  0  0  0  0  0  0  0
   15.8397  101.4846   48.2884 N   0  0  0  0  0  0  0  0  0  0  0  0
   16.1221  102.6164   47.4058 C   0  0  0  0  0  0  0  0  0  0  0  0
   15.2810  101.8393   49.5076 C   0  0  0  0  0  0  0  0  0  0  0  0
   15.9210  101.5372   50.7867 C   0  0  0  0  0  0  0  0  0  0  0  0
   16.1033  100.1856   51.3129 C   0  0  0  0  0  0  0  0  0  0  0  0
   15.5106   99.9157   52.5970 N   0  0  0  0  0  0  0  0  0  0  0  0
   16.0978  100.2672   53.8219 C   0  0  0  0  0  0  0  0  0  0  0  0
   17.1879  100.8646   53.9352 O   0  0  0  0  0  0  0  0  0  0  0  0
   15.4001   99.9231   55.0735 C   0  0  0  0  0  0  0  0  0  0  0  0
   15.9826  100.2716   56.2810 C   0  0  0  0  0  0  0  0  0  0  0  0
   15.3919   99.9858   57.4913 C   0  0  0  0  0  0  0  0  0  0  0  0
   14.1816   99.3314   57.4935 C   0  0  0  0  0  0  0  0  0  0  0  0
   13.5710   98.9680   56.3079 C   0  0  0  0  0  0  0  0  0  0  0  0
   12.3459   98.3073   56.3032 C   0  0  0  0  0  0  0  0  0  0  0  0
   11.7784   97.9682   55.0968 C   0  0  0  0  0  0  0  0  0  0  0  0
   12.3781   98.2581   53.9059 C   0  0  0  0  0  0  0  0  0  0  0  0
   13.6116   98.9229   53.8791 C   0  0  0  0  0  0  0  0  0  0  0  0
   14.1893   99.2689   55.1055 C   0  0  0  0  0  0  0  0  0  0  0  0
   14.2305   99.2232   52.6130 C   0  0  0  0  0  0  0  0  0  0  0  0
   13.7038   98.9087   51.5270 O   0  0  0  0  0  0  0  0  0  0  0  0
   11.7026   97.9971   57.5656 C   0  0  0  0  0  0  0  0  0  0  0  0
   10.5920   97.3996   57.5469 O   0  0  0  0  0  0  0  0  0  0  0  0
   12.2804   98.3443   58.8249 N   0  0  0  0  0  0  0  0  0  0  0  0
   11.6666   98.0584   60.0974 C   0  0  0  0  0  0  0  0  0  0  0  0
   12.1078   96.6703   60.5461 C   0  0  0  0  0  0  0  0  0  0  0  0
   11.9971   96.6373   62.0721 C   0  0  0  0  0  0  0  0  0  0  0  0
   12.6033   95.4064   62.5137 N   0  0  0  0  0  0  0  0  0  0  0  0
   11.9321   94.8541   63.6777 C   0  0  0  0  0  0  0  0  0  0  0  0
   12.1741   93.3395   63.5651 C   0  0  0  0  0  0  0  0  0  0  0  0
   13.6317   93.1328   63.2079 C   0  0  0  0  0  0  0  0  0  0  0  0
   14.4574   94.3606   63.6076 C   0  0  0  0  0  0  0  0  0  0  0  0
   14.0297   95.5411   62.7461 C   0  0  0  0  0  0  0  0  0  0  0  0
   13.5312   99.0168   58.7676 C   0  0  0  0  0  0  0  0  0  0  0  0
   14.1435   99.3780   59.8209 O   0  0  0  0  0  0  0  0  0  0  0  0
  1  2  1  0
  2  3  1  0
  2  4  1  0
  4  5  1  0
  5  6  1  0
  6  7  1  0
  7  8  1  0
  8  9  2  0
  8 10  1  0
 10 11  1  0
 11 12  2  0
 12 13  1  0
 13 14  2  0
 14 15  1  0
 15 16  2  0
 16 17  1  0
 17 18  2  0
 18 19  1  0
 18 20  1  0
 20 21  2  0
 15 22  1  0
 22 23  2  0
 22 24  1  0
 24 25  1  0
 25 26  1  0
 26 27  1  0
 27 28  1  0
 28 29  1  0
 29 30  1  0
 30 31  1  0
 31 32  1  0
 32 33  1  0
 24 34  1  0
 34 35  2  0
 20  7  1  0
 33 28  1  0
 19 10  2  0
 34 13  1  0
 19 14  1  0
M  END
$$$$
