
     RDKit          3D

 21 22  0  0  0  0  0  0  0  0999 V2000
   13.5687   47.2995   19.3765 C   0  0  0  0  0  0  0  0  0  0  0  0
   14.2234   48.6771   19.2731 C   0  0  0  0  0  0  0  0  0  0  0  0
   13.9561   49.4114   20.5745 C   0  0  0  0  0  0  0  0  0  0  0  0
   13.5949   49.4533   18.1622 C   0  0  0  0  0  0  0  0  0  0  0  0
   14.0224   49.0253   16.7953 C   0  0  0  0  0  0  0  0  0  0  0  0
   15.5284   48.9492   16.6738 C   0  0  0  0  0  0  0  0  0  0  0  0
   16.0645   50.3502   16.6808 C   0  0  0  0  0  0  0  0  0  0  0  0
   15.5789   51.0632   15.5236 N   0  0  0  0  0  0  0  0  0  0  0  0
   15.8182   52.4192   15.2290 C   0  0  0  0  0  0  0  0  0  0  0  0
   16.9158   52.9146   15.5738 O   0  0  0  0  0  0  0  0  0  0  0  0
   14.7872   53.2605   14.5179 C   0  0  0  0  0  0  0  0  0  0  0  0
   15.4930   54.1553   13.6474 N   0  0  0  0  0  0  0  0  0  0  0  0
   16.6754   53.6857   12.9594 C   0  0  0  0  0  0  0  0  0  0  0  0
   16.7176   54.1153   11.5244 C   0  0  0  0  0  0  0  0  0  0  0  0
   16.6381   55.5812   11.3102 C   0  0  0  0  0  0  0  0  0  0  0  0
   16.8986   56.4184   12.5134 C   0  0  0  0  0  0  0  0  0  0  0  0
   15.5741   56.7502   13.2055 C   0  0  0  0  0  0  0  0  0  0  0  0
   14.9296   55.4559   13.5537 C   0  0  0  0  0  0  0  0  0  0  0  0
   13.7055   55.5373   13.7995 O   0  0  0  0  0  0  0  0  0  0  0  0
   16.1358   48.0971   17.7632 C   0  0  0  0  0  0  0  0  0  0  0  0
   15.7096   48.5224   19.1382 C   0  0  0  0  0  0  0  0  0  0  0  0
  1  2  1  0
  2  3  1  0
  2  4  1  0
  4  5  1  0
  5  6  1  0
  6  7  1  0
  7  8  1  0
  8  9  1  0
  9 10  2  0
  9 11  1  0
 11 12  1  0
 12 13  1  0
 13 14  1  0
 14 15  1  0
 15 16  1  0
 16 17  1  0
 17 18  1  0
 18 19  2  0
  6 20  1  0
 20 21  1  0
 21  2  1  0
 18 12  1  0
M  END
$$$$
