
     RDKit          3D

 19 20  0  0  0  0  0  0  0  0999 V2000
   35.7463   83.6257   51.3188 O   0  0  0  0  0  0  0  0  0  0  0  0
   35.5781   82.3483   51.2849 C   0  0  0  0  0  0  0  0  0  0  0  0
   34.3474   81.9396   50.7756 N   0  0  0  0  0  0  0  0  0  0  0  0
   33.3364   82.8434   50.2681 C   0  0  0  0  0  0  0  0  0  0  0  0
   32.0210   82.7148   50.9228 C   0  0  0  0  0  0  0  0  0  0  0  0
   30.9196   82.2004   50.2953 C   0  0  0  0  0  0  0  0  0  0  0  0
   29.6762   82.0925   50.9170 C   0  0  0  0  0  0  0  0  0  0  0  0
   29.5127   82.5050   52.2007 C   0  0  0  0  0  0  0  0  0  0  0  0
   28.3087   82.4206   52.8566 F   0  0  0  0  0  0  0  0  0  0  0  0
   30.6035   83.0269   52.8600 C   0  0  0  0  0  0  0  0  0  0  0  0
   31.8236   83.1303   52.2410 C   0  0  0  0  0  0  0  0  0  0  0  0
   36.6668   81.5135   51.7718 C   0  0  0  0  0  0  0  0  0  0  0  0
   37.7686   81.2419   51.0232 C   0  0  0  0  0  0  0  0  0  0  0  0
   37.9374   81.7416   49.7943 F   0  0  0  0  0  0  0  0  0  0  0  0
   38.7575   80.4112   51.5798 C   0  0  0  0  0  0  0  0  0  0  0  0
   38.6237   79.8908   52.8299 C   0  0  0  0  0  0  0  0  0  0  0  0
   37.5072   80.1631   53.5953 C   0  0  0  0  0  0  0  0  0  0  0  0
   36.5294   80.9721   53.0700 C   0  0  0  0  0  0  0  0  0  0  0  0
   35.4239   81.2478   53.8128 F   0  0  0  0  0  0  0  0  0  0  0  0
  1  2  2  0
  2  3  1  0
  3  4  1  0
  4  5  1  0
  5  6  2  0
  6  7  1  0
  7  8  2  0
  8  9  1  0
  8 10  1  0
 10 11  2  0
  2 12  1  0
 12 13  2  0
 13 14  1  0
 13 15  1  0
 15 16  2  0
 16 17  1  0
 17 18  2  0
 18 19  1  0
 11  5  1  0
 18 12  1  0
M  END
$$$$
