
     RDKit          3D

 21 22  0  0  0  0  0  0  0  0999 V2000
   15.8073  101.1325   56.2050 C   0  0  0  0  0  0  0  0  0  0  0  0
   14.3973  100.6243   56.2860 C   0  0  0  0  0  0  0  0  0  0  0  0
   13.3618  100.5970   55.7270 N   0  0  0  0  0  0  0  0  0  0  0  0
   12.2328  100.0406   56.0595 C   0  0  0  0  0  0  0  0  0  0  0  0
   12.2645   99.3588   57.2977 C   0  0  0  0  0  0  0  0  0  0  0  0
   11.1902   98.6469   57.9400 C   0  0  0  0  0  0  0  0  0  0  0  0
   11.5377   97.3324   58.4467 N   0  0  0  0  0  0  0  0  0  0  0  0
   11.7021   97.2205   59.8635 C   0  0  0  0  0  0  0  0  0  0  0  0
   11.2973   98.1363   60.6254 O   0  0  0  0  0  0  0  0  0  0  0  0
   12.3153   96.0984   60.4685 N   0  0  0  0  0  0  0  0  0  0  0  0
   12.6067   96.0035   61.8835 C   0  0  0  0  0  0  0  0  0  0  0  0
   12.0755   94.7341   62.5025 C   0  0  0  0  0  0  0  0  0  0  0  0
   13.1215   94.2190   63.4314 C   0  0  0  0  0  0  0  0  0  0  0  0
   13.1102   94.5492   64.7707 C   0  0  0  0  0  0  0  0  0  0  0  0
   12.1222   95.3597   65.2419 F   0  0  0  0  0  0  0  0  0  0  0  0
   14.0950   94.0531   65.5987 C   0  0  0  0  0  0  0  0  0  0  0  0
   15.1038   93.2293   65.1348 C   0  0  0  0  0  0  0  0  0  0  0  0
   15.0938   92.9135   63.7932 C   0  0  0  0  0  0  0  0  0  0  0  0
   14.1218   93.3929   62.9334 C   0  0  0  0  0  0  0  0  0  0  0  0
   14.1553   93.0555   61.6281 F   0  0  0  0  0  0  0  0  0  0  0  0
   13.9163   99.6111   57.8162 S   0  0  0  0  0  0  0  0  0  0  0  0
  1  2  1  0
  2  3  2  0
  3  4  1  0
  4  5  2  0
  5  6  1  0
  6  7  1  0
  7  8  1  0
  8  9  2  0
  8 10  1  0
 10 11  1  0
 11 12  1  0
 12 13  1  0
 13 14  2  0
 14 15  1  0
 14 16  1  0
 16 17  2  0
 17 18  1  0
 18 19  2  0
 19 20  1  0
  5 21  1  0
 21  2  1  0
 19 13  1  0
M  END
$$$$
