
     RDKit          3D

 29 31  0  0  0  0  0  0  0  0999 V2000
   14.0333   45.9921   20.5268 C   0  0  0  0  0  0  0  0  0  0  0  0
   13.7216   46.9430   19.5557 O   0  0  0  0  0  0  0  0  0  0  0  0
   14.6383   47.4968   18.6525 C   0  0  0  0  0  0  0  0  0  0  0  0
   15.8650   46.9017   18.5354 C   0  0  0  0  0  0  0  0  0  0  0  0
   16.7595   47.4447   17.6482 C   0  0  0  0  0  0  0  0  0  0  0  0
   16.4230   48.5654   16.8936 C   0  0  0  0  0  0  0  0  0  0  0  0
   15.1831   49.1694   17.0092 C   0  0  0  0  0  0  0  0  0  0  0  0
   14.8182   50.3318   16.1939 C   0  0  0  0  0  0  0  0  0  0  0  0
   14.5480   51.5800   16.9594 C   0  0  0  0  0  0  0  0  0  0  0  0
   15.6704   52.5929   16.9606 C   0  0  0  0  0  0  0  0  0  0  0  0
   15.9955   52.9554   15.6234 N   0  0  0  0  0  0  0  0  0  0  0  0
   16.6704   54.1396   15.2738 C   0  0  0  0  0  0  0  0  0  0  0  0
   17.0905   54.9043   16.1821 O   0  0  0  0  0  0  0  0  0  0  0  0
   16.8786   54.4696   13.8476 C   0  0  0  0  0  0  0  0  0  0  0  0
   16.4851   55.7067   13.3509 C   0  0  0  0  0  0  0  0  0  0  0  0
   16.6861   56.0352   12.0250 C   0  0  0  0  0  0  0  0  0  0  0  0
   17.2769   55.1623   11.1505 C   0  0  0  0  0  0  0  0  0  0  0  0
   17.4576   55.5630    9.7929 C   0  0  0  0  0  0  0  0  0  0  0  0
   17.5994   55.8843    8.6672 N   0  0  0  0  0  0  0  0  0  0  0  0
   17.6684   53.9368   11.6358 C   0  0  0  0  0  0  0  0  0  0  0  0
   18.3149   52.9796   10.7004 C   0  0  0  0  0  0  0  0  0  0  0  0
   17.4715   53.5993   12.9599 C   0  0  0  0  0  0  0  0  0  0  0  0
   15.5977   52.0355   14.5752 C   0  0  0  0  0  0  0  0  0  0  0  0
   15.9113   50.6551   15.1566 C   0  0  0  0  0  0  0  0  0  0  0  0
   14.3032   48.6195   17.8967 C   0  0  0  0  0  0  0  0  0  0  0  0
   12.9621   49.1518   18.1529 C   0  0  0  0  0  0  0  0  0  0  0  0
   12.9658   49.8671   19.3620 F   0  0  0  0  0  0  0  0  0  0  0  0
   11.9287   48.2986   18.2035 F   0  0  0  0  0  0  0  0  0  0  0  0
   12.7722   50.1617   17.1992 F   0  0  0  0  0  0  0  0  0  0  0  0
  1  2  1  0
  2  3  1  0
  3  4  2  0
  4  5  1  0
  5  6  2  0
  6  7  1  0
  7  8  1  0
  8  9  1  0
  9 10  1  0
 10 11  1  0
 11 12  1  0
 12 13  2  0
 12 14  1  0
 14 15  2  0
 15 16  1  0
 16 17  2  0
 17 18  1  0
 18 19  3  0
 17 20  1  0
 20 21  1  0
 20 22  2  0
 11 23  1  0
 23 24  1  0
  7 25  2  0
 25 26  1  0
 26 27  1  0
 26 28  1  0
 26 29  1  0
 25  3  1  0
 24  8  1  0
 22 14  1  0
M  END
$$$$
