
     RDKit          3D

 22 25  0  0  0  0  0  0  0  0999 V2000
   39.4995   81.7727   54.2754 C   0  0  0  0  0  0  0  0  0  0  0  0
   38.3881   80.8401   53.8421 C   0  0  0  0  0  0  0  0  0  0  0  0
   39.0194   79.7611   52.9950 C   0  0  0  0  0  0  0  0  0  0  0  0
   37.3802   81.5872   53.2051 N   0  0  0  0  0  0  0  0  0  0  0  0
   36.0299   81.2585   53.4987 C   0  0  0  0  0  0  0  0  0  0  0  0
   35.1612   82.3393   52.8380 C   0  0  0  0  0  0  0  0  0  0  0  0
   35.2970   82.1147   51.4086 N   0  0  0  0  0  0  0  0  0  0  0  0
   34.1555   82.1331   50.5960 C   0  0  0  0  0  0  0  0  0  0  0  0
   34.2811   81.9453   49.2804 N   0  0  0  0  0  0  0  0  0  0  0  0
   33.2313   81.9495   48.4458 C   0  0  0  0  0  0  0  0  0  0  0  0
   33.4072   81.7487   47.0740 C   0  0  0  0  0  0  0  0  0  0  0  0
   32.3255   81.7541   46.2214 C   0  0  0  0  0  0  0  0  0  0  0  0
   31.0906   81.9604   46.7597 C   0  0  0  0  0  0  0  0  0  0  0  0
   30.9052   82.1597   48.1126 C   0  0  0  0  0  0  0  0  0  0  0  0
   31.9762   82.1574   48.9800 C   0  0  0  0  0  0  0  0  0  0  0  0
   31.8152   82.3560   50.3472 C   0  0  0  0  0  0  0  0  0  0  0  0
   30.7443   82.5695   51.0736 O   0  0  0  0  0  0  0  0  0  0  0  0
   31.0846   82.7004   52.3418 C   0  0  0  0  0  0  0  0  0  0  0  0
   32.4481   82.5656   52.4507 C   0  0  0  0  0  0  0  0  0  0  0  0
   32.9189   82.3426   51.1572 C   0  0  0  0  0  0  0  0  0  0  0  0
   36.6228   81.8771   50.8739 C   0  0  0  0  0  0  0  0  0  0  0  0
   37.6432   82.1668   51.9498 C   0  0  0  0  0  0  0  0  0  0  0  0
  1  2  1  0
  2  3  1  0
  2  4  1  0
  4  5  1  0
  5  6  1  0
  6  7  1  0
  7  8  1  0
  8  9  2  0
  9 10  1  0
 10 11  2  0
 11 12  1  0
 12 13  2  0
 13 14  1  0
 14 15  2  0
 15 16  1  0
 16 17  1  0
 17 18  1  0
 18 19  2  0
 19 20  1  0
  7 21  1  0
 21 22  1  0
 22  4  1  0
 20  8  1  0
 15 10  1  0
 20 16  2  0
M  END
$$$$
