
     RDKit          3D

 32 33  0  0  0  0  0  0  0  0999 V2000
   30.1697   83.1313   53.2285 C   0  0  0  0  0  0  0  0  0  0  0  0
   30.6808   82.0477   52.2926 C   0  0  0  0  0  0  0  0  0  0  0  0
   30.0892   82.2083   50.9157 C   0  0  0  0  0  0  0  0  0  0  0  0
   30.3224   80.6679   52.8316 C   0  0  0  0  0  0  0  0  0  0  0  0
   32.1639   82.1476   52.2977 C   0  0  0  0  0  0  0  0  0  0  0  0
   32.9227   81.4301   53.2035 C   0  0  0  0  0  0  0  0  0  0  0  0
   34.3104   81.5252   53.2175 C   0  0  0  0  0  0  0  0  0  0  0  0
   34.9872   82.3326   52.3354 C   0  0  0  0  0  0  0  0  0  0  0  0
   36.4283   82.4783   52.3222 C   0  0  0  0  0  0  0  0  0  0  0  0
   36.9792   83.1108   53.2697 O   0  0  0  0  0  0  0  0  0  0  0  0
   37.1798   81.9266   51.2738 N   0  0  0  0  0  0  0  0  0  0  0  0
   38.6328   82.1119   51.2944 C   0  0  0  0  0  0  0  0  0  0  0  0
   38.9149   82.8222   49.9606 C   0  0  0  0  0  0  0  0  0  0  0  0
   38.6530   81.8537   48.9398 N   0  0  0  0  0  0  0  0  0  0  0  0
   39.3854   81.8017   47.7375 C   0  0  0  0  0  0  0  0  0  0  0  0
   38.7913   82.3538   46.5966 C   0  0  0  0  0  0  0  0  0  0  0  0
   39.3981   82.3819   45.3698 C   0  0  0  0  0  0  0  0  0  0  0  0
   40.6562   81.8311   45.2858 C   0  0  0  0  0  0  0  0  0  0  0  0
   41.2946   81.2749   46.3606 C   0  0  0  0  0  0  0  0  0  0  0  0
   40.6395   81.2682   47.5887 C   0  0  0  0  0  0  0  0  0  0  0  0
   41.2854   80.6470   48.7833 C   0  0  1  0  0  0  0  0  0  0  0  0
   41.8610   79.3877   48.3245 N   0  0  0  0  0  0  0  0  0  0  0  0
   42.3539   81.4532   49.4221 C   0  0  0  0  0  0  0  0  0  0  0  0
   43.5484   81.8058   48.6258 C   0  0  0  0  0  0  0  0  0  0  0  0
   44.4137   80.7108   48.1341 C   0  0  0  0  0  0  0  0  0  0  0  0
   45.5589   81.3795   47.3445 C   0  0  0  0  0  0  0  0  0  0  0  0
   46.4294   80.3543   46.8409 N   0  0  0  0  0  0  0  0  0  0  0  0
   37.6021   80.8635   49.1031 C   0  0  0  0  0  0  0  0  0  0  0  0
   36.6178   81.2029   50.1935 C   0  0  0  0  0  0  0  0  0  0  0  0
   34.2149   83.0523   51.4242 C   0  0  0  0  0  0  0  0  0  0  0  0
   32.8458   82.9605   51.4083 C   0  0  0  0  0  0  0  0  0  0  0  0
   38.4228   81.6430   49.5358 Cl  0  0  0  0  0  0  0  0  0  0  0  0
  1  2  1  0
  2  3  1  0
  2  4  1  0
  2  5  1  0
  5  6  2  0
  6  7  1  0
  7  8  2  0
  8  9  1  0
  9 10  2  0
  9 11  1  0
 11 12  1  0
 12 13  1  0
 13 14  1  0
 14 15  1  0
 15 16  2  0
 16 17  1  0
 17 18  2  0
 18 19  1  0
 19 20  2  0
 20 21  1  0
 21 22  1  6
 21 23  1  0
 23 24  1  0
 24 25  1  0
 25 26  1  0
 26 27  1  0
 14 28  1  0
 28 29  1  0
  8 30  1  0
 30 31  2  0
 31  5  1  0
 29 11  1  0
 20 15  1  0
M  END
$$$$
