
     RDKit          3D

 16 17  0  0  0  0  0  0  0  0999 V2000
    9.0984   88.3732   66.7795 C   0  0  0  0  0  0  0  0  0  0  0  0
    9.4110   89.6391   66.0114 C   0  0  0  0  0  0  0  0  0  0  0  0
   10.2413   89.3593   64.7764 C   0  0  0  0  0  0  0  0  0  0  0  0
   10.4515   90.6140   64.0307 N   0  0  0  0  0  0  0  0  0  0  0  0
   11.6563   91.3308   64.1082 C   0  0  0  0  0  0  0  0  0  0  0  0
   12.7377   90.6436   64.1641 O   0  0  0  0  0  0  0  0  0  0  0  0
   11.7973   92.7297   64.1363 N   0  0  0  0  0  0  0  0  0  0  0  0
   10.7096   93.5605   64.6925 C   0  0  0  0  0  0  0  0  0  0  0  0
   10.2304   94.3838   63.5215 C   0  0  0  0  0  0  0  0  0  0  0  0
   11.3030   95.1453   62.8511 C   0  0  0  0  0  0  0  0  0  0  0  0
   12.6661   94.6036   62.9541 C   0  0  0  0  0  0  0  0  0  0  0  0
   13.7200   95.2997   62.4046 C   0  0  0  0  0  0  0  0  0  0  0  0
   15.0049   94.7668   62.5312 C   0  0  0  0  0  0  0  0  0  0  0  0
   15.2168   93.5693   63.1926 C   0  0  0  0  0  0  0  0  0  0  0  0
   14.1638   92.8699   63.7443 C   0  0  0  0  0  0  0  0  0  0  0  0
   12.9054   93.4181   63.6034 C   0  0  0  0  0  0  0  0  0  0  0  0
  1  2  1  0
  2  3  1  0
  3  4  1  0
  4  5  1  0
  5  6  2  0
  5  7  1  0
  7  8  1  0
  8  9  1  0
  9 10  1  0
 10 11  1  0
 11 12  2  0
 12 13  1  0
 13 14  2  0
 14 15  1  0
 15 16  2  0
 16  7  1  0
 16 11  1  0
M  END
$$$$
