
     RDKit          3D

 27 29  0  0  0  0  0  0  0  0999 V2000
   12.4303   60.3797   11.9648 C   0  0  0  0  0  0  0  0  0  0  0  0
   13.1283   59.0778   12.1373 C   0  0  0  0  0  0  0  0  0  0  0  0
   12.4613   58.0173   12.2710 O   0  0  0  0  0  0  0  0  0  0  0  0
   14.5543   58.9428   12.1628 N   0  0  0  0  0  0  0  0  0  0  0  0
   15.1507   57.6489   12.2273 C   0  0  0  0  0  0  0  0  0  0  0  0
   16.5076   57.5504   11.9985 C   0  0  0  0  0  0  0  0  0  0  0  0
   17.1661   56.3305   12.0337 C   0  0  0  0  0  0  0  0  0  0  0  0
   16.4355   55.1915   12.3045 C   0  0  0  0  0  0  0  0  0  0  0  0
   17.1384   53.9228   12.3255 C   0  0  0  0  0  0  0  0  0  0  0  0
   17.7115   53.4788   11.2859 O   0  0  0  0  0  0  0  0  0  0  0  0
   17.1879   53.1692   13.5134 N   0  0  0  0  0  0  0  0  0  0  0  0
   16.6253   53.7130   14.7616 C   0  0  0  0  0  0  0  0  0  0  0  0
   15.7947   52.5842   15.3767 C   0  0  0  0  0  0  0  0  0  0  0  0
   16.7941   51.5885   15.9053 C   0  0  0  0  0  0  0  0  0  0  0  0
   16.2458   50.3578   16.1806 O   0  0  0  0  0  0  0  0  0  0  0  0
   15.8344   50.2115   17.4916 C   0  0  0  0  0  0  0  0  0  0  0  0
   14.6741   49.2934   17.6219 C   0  0  0  0  0  0  0  0  0  0  0  0
   14.6600   48.0710   16.9195 C   0  0  0  0  0  0  0  0  0  0  0  0
   13.6062   47.1967   17.0140 C   0  0  0  0  0  0  0  0  0  0  0  0
   12.5178   47.4817   17.8019 C   0  0  0  0  0  0  0  0  0  0  0  0
   12.5100   48.6654   18.4945 C   0  0  0  0  0  0  0  0  0  0  0  0
   13.5640   49.5365   18.3976 C   0  0  0  0  0  0  0  0  0  0  0  0
   13.5035   50.6897   19.0952 F   0  0  0  0  0  0  0  0  0  0  0  0
   17.9927   51.4635   15.0313 C   0  0  0  0  0  0  0  0  0  0  0  0
   17.7592   51.8645   13.5970 C   0  0  0  0  0  0  0  0  0  0  0  0
   15.0754   55.2489   12.5389 C   0  0  0  0  0  0  0  0  0  0  0  0
   14.4552   56.4974   12.4940 C   0  0  0  0  0  0  0  0  0  0  0  0
  1  2  1  0
  2  3  2  0
  2  4  1  0
  4  5  1  0
  5  6  2  0
  6  7  1  0
  7  8  2  0
  8  9  1  0
  9 10  2  0
  9 11  1  0
 11 12  1  0
 12 13  1  0
 13 14  1  0
 14 15  1  0
 15 16  1  0
 16 17  1  0
 17 18  2  0
 18 19  1  0
 19 20  2  0
 20 21  1  0
 21 22  2  0
 22 23  1  0
 14 24  1  0
 24 25  1  0
  8 26  1  0
 26 27  2  0
 27  5  1  0
 25 11  1  0
 22 17  1  0
M  END
$$$$
