
     RDKit          3D

 18 19  0  0  0  0  0  0  0  0999 V2000
   14.0508   62.1467   12.7668 C   0  0  0  0  0  0  0  0  0  0  0  0
   12.8463   61.4814   13.1620 N   0  0  0  0  0  0  0  0  0  0  0  0
   12.4460   60.2028   12.1392 S   0  0  0  0  0  6  0  0  0  0  0  0
   10.9391   59.9416   12.2597 O   0  0  0  0  0  0  0  0  0  0  0  0
   12.6354   60.6417   10.7043 O   0  0  0  0  0  0  0  0  0  0  0  0
   13.2015   58.7092   12.4495 N   0  0  0  0  0  0  0  0  0  0  0  0
   14.4805   58.8669   13.0215 C   0  0  0  0  0  0  0  0  0  0  0  0
   14.9082   57.5185   13.6069 C   0  0  0  0  0  0  0  0  0  0  0  0
   14.9687   56.6032   12.4885 N   0  0  0  0  0  0  0  0  0  0  0  0
   15.6153   55.3722   12.6227 C   0  0  0  0  0  0  0  0  0  0  0  0
   15.3720   54.5601   13.7305 C   0  0  0  0  0  0  0  0  0  0  0  0
   16.0090   53.3466   13.8718 C   0  0  0  0  0  0  0  0  0  0  0  0
   16.8920   52.9113   12.9320 C   0  0  0  0  0  0  0  0  0  0  0  0
   17.1624   53.6715   11.8303 C   0  0  0  0  0  0  0  0  0  0  0  0
   16.5138   54.9010   11.6920 C   0  0  0  0  0  0  0  0  0  0  0  0
   16.8861   55.8500   10.2510 Cl  0  0  0  0  0  0  0  0  0  0  0  0
   14.3660   56.9337   11.2110 C   0  0  0  0  0  0  0  0  0  0  0  0
   13.1265   57.7707   11.3621 C   0  0  0  0  0  0  0  0  0  0  0  0
  1  2  1  0
  2  3  1  0
  3  4  2  0
  3  5  2  0
  3  6  1  0
  6  7  1  0
  7  8  1  0
  8  9  1  0
  9 10  1  0
 10 11  2  0
 11 12  1  0
 12 13  2  0
 13 14  1  0
 14 15  2  0
 15 16  1  0
  9 17  1  0
 17 18  1  0
 18  6  1  0
 15 10  1  0
M  END
$$$$
