
     RDKit          3D

 28 30  0  0  0  0  0  0  0  0999 V2000
   16.3750  100.8946   54.1220 N   0  0  0  0  0  0  0  0  0  0  0  0
   15.2462  100.5143   54.8845 C   0  0  0  0  0  0  0  0  0  0  0  0
   15.2573  100.4499   56.2603 C   0  0  0  0  0  0  0  0  0  0  0  0
   14.1417  100.0760   56.9296 N   0  0  0  0  0  0  0  0  0  0  0  0
   13.0018   99.7568   56.3233 C   0  0  0  0  0  0  0  0  0  0  0  0
   11.7966   99.3712   57.0400 N   0  0  0  0  0  0  0  0  0  0  0  0
   11.6124   99.8599   58.3887 C   0  0  0  0  0  0  0  0  0  0  0  0
   11.6689   98.7602   59.3671 C   0  0  0  0  0  0  0  0  0  0  0  0
   11.2984   97.4544   59.0179 C   0  0  0  0  0  0  0  0  0  0  0  0
   11.3156   96.4799   59.9822 C   0  0  0  0  0  0  0  0  0  0  0  0
   11.6754   96.6971   61.2889 C   0  0  0  0  0  0  0  0  0  0  0  0
   11.6602   95.6811   62.2954 N   0  0  0  0  0  0  0  0  0  0  0  0
   10.5461   95.2281   62.8758 N   0  0  0  0  0  0  0  0  0  0  0  0
   10.8327   94.2786   63.7816 C   0  0  0  0  0  0  0  0  0  0  0  0
    9.8641   93.5162   64.6504 C   0  0  0  0  0  0  0  0  0  0  0  0
    8.7304   94.2536   64.8660 F   0  0  0  0  0  0  0  0  0  0  0  0
   10.4352   93.2616   65.8848 F   0  0  0  0  0  0  0  0  0  0  0  0
    9.6012   92.3279   64.0272 F   0  0  0  0  0  0  0  0  0  0  0  0
   12.2056   94.1539   63.7431 C   0  0  0  0  0  0  0  0  0  0  0  0
   12.7263   95.0399   62.8036 C   0  0  0  0  0  0  0  0  0  0  0  0
   14.1606   95.2428   62.4221 C   0  0  0  0  0  0  0  0  0  0  0  0
   14.3341   94.7575   61.1296 F   0  0  0  0  0  0  0  0  0  0  0  0
   14.9510   94.5757   63.3279 F   0  0  0  0  0  0  0  0  0  0  0  0
   14.3767   96.5895   62.3827 F   0  0  0  0  0  0  0  0  0  0  0  0
   12.0407   97.9770   61.6296 C   0  0  0  0  0  0  0  0  0  0  0  0
   12.0358   98.9855   60.6824 C   0  0  0  0  0  0  0  0  0  0  0  0
   12.9638   99.8110   54.9715 N   0  0  0  0  0  0  0  0  0  0  0  0
   14.0457  100.1768   54.2729 C   0  0  0  0  0  0  0  0  0  0  0  0
  1  2  1  0
  2  3  2  0
  3  4  1  0
  4  5  2  0
  5  6  1  0
  6  7  1  0
  7  8  1  0
  8  9  2  0
  9 10  1  0
 10 11  2  0
 11 12  1  0
 12 13  1  0
 13 14  2  0
 14 15  1  0
 15 16  1  0
 15 17  1  0
 15 18  1  0
 14 19  1  0
 19 20  2  0
 20 21  1  0
 21 22  1  0
 21 23  1  0
 21 24  1  0
 11 25  1  0
 25 26  2  0
  5 27  1  0
 27 28  2  0
 28  2  1  0
 26  8  1  0
 20 12  1  0
M  END
$$$$
