
     RDKit          3D

 41 46  0  0  0  0  0  0  0  0999 V2000
   45.6367   83.5438   47.5178 C   0  0  0  0  0  0  0  0  0  0  0  0
   44.3852   83.2325   48.2191 C   0  0  0  0  0  0  0  0  0  0  0  0
   44.4352   82.9562   49.4391 O   0  0  0  0  0  0  0  0  0  0  0  0
   43.1400   83.2400   47.5454 N   0  0  0  0  0  0  0  0  0  0  0  0
   43.0663   83.6806   46.1667 C   0  0  0  0  0  0  0  0  0  0  0  0
   41.8479   84.5285   45.9890 C   0  0  0  0  0  0  0  0  0  0  0  0
   40.6039   83.9758   46.5992 C   0  0  0  0  0  0  0  0  0  0  0  0
   40.0758   82.7922   45.9006 C   0  0  0  0  0  0  0  0  0  0  0  0
   40.6151   82.1012   44.8692 N   0  0  0  0  0  0  0  0  0  0  0  0
   39.8295   81.1001   44.5128 N   0  0  0  0  0  0  0  0  0  0  0  0
   38.7354   81.0893   45.2974 C   0  0  0  0  0  0  0  0  0  0  0  0
   37.6258   80.2503   45.3399 C   0  0  0  0  0  0  0  0  0  0  0  0
   36.6685   80.5130   46.2927 C   0  0  0  0  0  0  0  0  0  0  0  0
   36.8001   81.5629   47.1705 C   0  0  0  0  0  0  0  0  0  0  0  0
   35.7596   81.7626   48.1675 C   0  0  0  0  0  0  0  0  0  0  0  0
   34.5659   81.3606   47.9674 O   0  0  0  0  0  0  0  0  0  0  0  0
   35.9804   82.4013   49.4119 N   0  0  0  0  0  0  0  0  0  0  0  0
   35.4541   81.9008   50.6787 C   0  0  0  0  0  0  0  0  0  0  0  0
   36.5126   82.0131   51.7329 C   0  0  0  0  0  0  0  0  0  0  0  0
   35.9898   81.8722   53.1343 C   0  0  0  0  0  0  0  0  0  0  0  0
   34.7595   81.0103   53.2142 C   0  0  0  0  0  0  0  0  0  0  0  0
   33.4988   81.8868   53.3108 C   0  0  0  0  0  0  0  0  0  0  0  0
   33.2107   82.3092   54.6576 C   0  0  0  0  0  0  0  0  0  0  0  0
   32.5398   81.3857   55.6119 C   0  0  0  0  0  0  0  0  0  0  0  0
   32.9962   80.1268   55.8640 C   0  0  0  0  0  0  0  0  0  0  0  0
   32.3420   79.3144   56.7759 C   0  0  0  0  0  0  0  0  0  0  0  0
   31.2320   79.7577   57.4374 C   0  0  0  0  0  0  0  0  0  0  0  0
   30.6276   78.9331   58.3150 F   0  0  0  0  0  0  0  0  0  0  0  0
   30.7693   81.0334   57.1831 C   0  0  0  0  0  0  0  0  0  0  0  0
   31.4011   81.8234   56.2993 C   0  0  0  0  0  0  0  0  0  0  0  0
   33.2735   82.5581   52.0935 N   0  0  0  0  0  0  0  0  0  0  0  0
   32.0049   83.0165   51.6195 C   0  0  0  0  0  0  0  0  0  0  0  0
   30.8031   82.2816   52.0027 C   0  0  0  0  0  0  0  0  0  0  0  0
   29.8098   81.5763   51.1708 C   0  0  0  0  0  0  0  0  0  0  0  0
   30.8018   80.7546   51.9083 C   0  0  0  0  0  0  0  0  0  0  0  0
   34.2867   82.7343   51.0565 C   0  0  0  0  0  0  0  0  0  0  0  0
   34.1359   83.7861   50.3539 O   0  0  0  0  0  0  0  0  0  0  0  0
   37.8877   82.3696   47.1120 C   0  0  0  0  0  0  0  0  0  0  0  0
   38.8917   82.1483   46.1636 C   0  0  0  0  0  0  0  0  0  0  0  0
   40.7745   83.6938   48.0696 C   0  0  0  0  0  0  0  0  0  0  0  0
   41.9631   82.7860   48.2728 C   0  0  0  0  0  0  0  0  0  0  0  0
  1  2  1  0
  2  3  2  0
  2  4  1  0
  4  5  1  0
  5  6  1  0
  6  7  1  0
  7  8  1  0
  8  9  2  0
  9 10  1  0
 10 11  1  0
 11 12  2  0
 12 13  1  0
 13 14  2  0
 14 15  1  0
 15 16  2  0
 15 17  1  0
 17 18  1  0
 18 19  1  0
 19 20  1  0
 20 21  1  0
 21 22  1  0
 22 23  1  0
 23 24  1  0
 24 25  2  0
 25 26  1  0
 26 27  2  0
 27 28  1  0
 27 29  1  0
 29 30  2  0
 22 31  1  0
 31 32  1  0
 32 33  1  0
 33 34  1  0
 34 35  1  0
 31 36  1  0
 36 37  2  0
 14 38  1  0
 38 39  2  0
  7 40  1  0
 40 41  1  0
 41  4  1  0
 39  8  1  0
 39 11  1  0
 36 18  1  0
 30 24  1  0
 35 33  1  0
M  END
$$$$
