
     RDKit          3D

 17 18  0  0  0  0  0  0  0  0999 V2000
   13.3159   49.5849   17.7529 C   0  0  0  0  0  0  0  0  0  0  0  0
   14.6644   49.8699   17.2133 C   0  0  0  0  0  0  0  0  0  0  0  0
   15.7311   49.0592   17.5677 C   0  0  0  0  0  0  0  0  0  0  0  0
   16.9914   49.2908   17.0944 C   0  0  0  0  0  0  0  0  0  0  0  0
   17.2255   50.3662   16.2315 C   0  0  0  0  0  0  0  0  0  0  0  0
   16.1942   51.1921   15.8574 C   0  0  0  0  0  0  0  0  0  0  0  0
   16.3737   52.2830   14.9958 N   0  0  0  0  0  0  0  0  0  0  0  0
   15.5591   53.4197   14.9234 C   0  0  0  0  0  0  0  0  0  0  0  0
   14.4583   53.5022   15.4574 O   0  0  0  0  0  0  0  0  0  0  0  0
   16.0214   54.6428   14.1557 C   0  0  0  0  0  0  0  0  0  0  0  0
   14.8957   54.9977   12.7890 S   0  0  0  0  0  0  0  0  0  0  0  0
   14.4462   56.7105   12.7246 C   0  0  0  0  0  0  0  0  0  0  0  0
   14.7039   57.7934   13.1519 N   0  0  0  0  0  0  0  0  0  0  0  0
   14.1328   58.9074   12.8382 N   0  0  0  0  0  0  0  0  0  0  0  0
   13.2383   59.0090   12.0504 C   0  0  0  0  0  0  0  0  0  0  0  0
   13.0184   57.2228   11.5323 S   0  0  0  0  0  0  0  0  0  0  0  0
   14.9027   50.9180   16.3705 C   0  0  0  0  0  0  0  0  0  0  0  0
  1  2  1  0
  2  3  2  0
  3  4  1  0
  4  5  2  0
  5  6  1  0
  6  7  1  0
  7  8  1  0
  8  9  2  0
  8 10  1  0
 10 11  1  0
 11 12  1  0
 12 13  2  0
 13 14  1  0
 14 15  2  0
 15 16  1  0
  6 17  2  0
 17  2  1  0
 16 12  1  0
M  END
$$$$
