
     RDKit          3D

 37 40  0  0  0  0  0  0  0  0999 V2000
   -8.5767   66.5995   32.6735 C   0  0  0  0  0  0  0  0  0  0  0  0
   -9.3938   65.5484   31.9624 C   0  0  0  0  0  0  0  0  0  0  0  0
   -8.7569   64.3431   31.6713 C   0  0  0  0  0  0  0  0  0  0  0  0
   -9.4149   63.3294   31.0293 C   0  0  0  0  0  0  0  0  0  0  0  0
   -8.6814   62.1407   30.7784 N   0  0  0  0  0  0  0  0  0  0  0  0
   -9.2004   60.9584   30.9625 C   0  0  0  0  0  0  0  0  0  0  0  0
  -10.2412   60.7994   31.7980 N   0  0  0  0  0  0  0  0  0  0  0  0
  -10.7964   59.5919   32.0205 C   0  0  0  0  0  0  0  0  0  0  0  0
  -11.7822   59.4334   32.8100 O   0  0  0  0  0  0  0  0  0  0  0  0
  -10.3388   58.4804   31.4185 N   0  0  0  0  0  0  0  0  0  0  0  0
  -10.9307   57.1781   31.6534 C   0  0  1  0  0  0  0  0  0  0  0  0
  -10.7534   56.7740   33.1152 C   0  0  0  0  0  0  0  0  0  0  0  0
  -12.3804   57.1340   31.2532 C   0  0  1  0  0  0  0  0  0  0  0  0
  -12.5281   57.9996   30.1608 O   0  0  0  0  0  0  0  0  0  0  0  0
  -12.7267   55.7558   30.7742 C   0  0  0  0  0  0  0  0  0  0  0  0
  -12.8410   54.7648   31.9219 C   0  0  0  0  0  0  0  0  0  0  0  0
  -12.7453   53.4526   31.1522 C   0  0  0  0  0  0  0  0  0  0  0  0
  -11.8545   53.8431   30.0062 C   0  0  0  0  0  0  0  0  0  0  0  0
  -11.6678   55.2004   30.0544 O   0  0  0  0  0  0  0  0  0  0  0  0
   -9.2869   58.6541   30.5767 C   0  0  0  0  0  0  0  0  0  0  0  0
   -8.8543   57.6044   30.0095 O   0  0  0  0  0  0  0  0  0  0  0  0
   -8.7210   59.8567   30.3436 N   0  0  0  0  0  0  0  0  0  0  0  0
   -7.6143   60.0160   29.4555 C   0  0  0  0  0  0  0  0  0  0  0  0
   -6.2842   59.8099   30.0367 C   0  0  0  0  0  0  0  0  0  0  0  0
   -5.1770   60.0467   29.2206 C   0  0  0  0  0  0  0  0  0  0  0  0
   -3.8850   59.8827   29.6700 C   0  0  0  0  0  0  0  0  0  0  0  0
   -3.6391   59.4738   30.9566 C   0  0  0  0  0  0  0  0  0  0  0  0
   -1.9845   59.2783   31.4870 Cl  0  0  0  0  0  0  0  0  0  0  0  0
   -4.7257   59.2404   31.7593 C   0  0  0  0  0  0  0  0  0  0  0  0
   -6.0360   59.4012   31.3213 C   0  0  0  0  0  0  0  0  0  0  0  0
  -10.7277   63.5168   30.6706 C   0  0  0  0  0  0  0  0  0  0  0  0
  -11.3580   64.6947   30.9525 C   0  0  0  0  0  0  0  0  0  0  0  0
  -10.7082   65.7727   31.6186 C   0  0  0  0  0  0  0  0  0  0  0  0
  -11.3686   66.8912   31.8657 O   0  0  0  0  0  0  0  0  0  0  0  0
  -12.4626   67.4858   32.3151 C   0  0  0  0  0  0  0  0  0  0  0  0
  -12.5353   67.5540   33.8678 C   0  0  0  0  0  0  0  0  0  0  0  0
  -13.7714   66.7320   31.9571 C   0  0  0  0  0  0  0  0  0  0  0  0
  1  2  1  0
  2  3  2  0
  3  4  1  0
  4  5  1  0
  5  6  2  0
  6  7  1  0
  7  8  1  0
  8  9  2  0
  8 10  1  0
 10 11  1  0
 11 12  1  1
 11 13  1  0
 13 14  1  6
 13 15  1  0
 15 16  1  0
 16 17  1  0
 17 18  1  0
 18 19  1  0
 10 20  1  0
 20 21  2  0
 20 22  1  0
 22 23  1  0
 23 24  1  0
 24 25  2  0
 25 26  1  0
 26 27  2  0
 27 28  1  0
 27 29  1  0
 29 30  2  0
  4 31  2  0
 31 32  1  0
 32 33  2  0
 33 34  1  0
 34 35  1  0
 35 36  1  0
 35 37  1  0
 33  2  1  0
 22  6  1  0
 30 24  1  0
 19 15  1  0
M  END
$$$$
