
     RDKit          3D

 26 28  0  0  0  0  0  0  0  0999 V2000
   15.4329  102.0669   50.1224 C   0  0  0  0  0  0  0  0  0  0  0  0
   15.7602  101.3649   51.3840 C   0  0  0  0  0  0  0  0  0  0  0  0
   16.9719  100.7287   51.5224 C   0  0  0  0  0  0  0  0  0  0  0  0
   17.2286  100.0914   52.7145 C   0  0  0  0  0  0  0  0  0  0  0  0
   16.3273  100.0870   53.7166 N   0  0  0  0  0  0  0  0  0  0  0  0
   15.1335  100.6956   53.6222 C   0  0  0  0  0  0  0  0  0  0  0  0
   14.2344  100.6502   54.7228 N   0  0  0  0  0  0  0  0  0  0  0  0
   14.2136   99.5696   55.6475 C   0  0  0  0  0  0  0  0  0  0  0  0
   15.0491   98.6546   55.4078 O   0  0  0  0  0  0  0  0  0  0  0  0
   13.3177   99.4845   56.7934 C   0  0  0  0  0  0  0  0  0  0  0  0
   13.1433   98.4632   57.6921 C   0  0  0  0  0  0  0  0  0  0  0  0
   12.1675   98.8426   58.6096 C   0  0  0  0  0  0  0  0  0  0  0  0
   11.5801   98.2361   59.7206 C   0  0  0  0  0  0  0  0  0  0  0  0
   12.0021   96.9949   60.0536 O   0  0  0  0  0  0  0  0  0  0  0  0
   11.6187   96.0928   61.0127 C   0  0  0  0  0  0  0  0  0  0  0  0
   12.3817   96.0629   62.2885 C   0  0  0  0  0  0  0  0  0  0  0  0
   13.6313   95.2285   62.1046 C   0  0  0  0  0  0  0  0  0  0  0  0
   13.4233   93.8527   62.4933 N   0  0  0  0  0  0  0  0  0  0  0  0
   13.6772   92.9283   61.4110 C   0  0  0  0  0  0  0  0  0  0  0  0
   14.1494   93.5038   63.6922 C   0  0  0  0  0  0  0  0  0  0  0  0
   10.6075   98.8711   60.4581 C   0  0  0  0  0  0  0  0  0  0  0  0
   10.2293  100.1478   60.0515 C   0  0  0  0  0  0  0  0  0  0  0  0
   10.8041  100.7513   58.9575 C   0  0  0  0  0  0  0  0  0  0  0  0
   11.7817  100.0972   58.2276 C   0  0  0  0  0  0  0  0  0  0  0  0
   12.4742  100.4727   57.1418 N   0  0  0  0  0  0  0  0  0  0  0  0
   14.8697  101.3359   52.4305 C   0  0  0  0  0  0  0  0  0  0  0  0
  1  2  1  0
  2  3  2  0
  3  4  1  0
  4  5  2  0
  5  6  1  0
  6  7  1  0
  7  8  1  0
  8  9  2  0
  8 10  1  0
 10 11  2  0
 11 12  1  0
 12 13  2  0
 13 14  1  0
 14 15  1  0
 15 16  1  0
 16 17  1  0
 17 18  1  0
 18 19  1  0
 18 20  1  0
 13 21  1  0
 21 22  2  0
 22 23  1  0
 23 24  2  0
 24 25  1  0
  6 26  2  0
 26  2  1  0
 25 10  1  0
 24 12  1  0
M  END
$$$$
