
     RDKit          3D

 23 26  0  0  0  0  0  0  0  0999 V2000
   17.5639   55.4142   10.6491 C   0  0  0  0  0  0  0  0  0  0  0  0
   16.9552   54.6566   11.7735 C   0  0  0  0  0  0  0  0  0  0  0  0
   15.8856   55.1946   12.4474 C   0  0  0  0  0  0  0  0  0  0  0  0
   15.3102   54.5018   13.4713 C   0  0  0  0  0  0  0  0  0  0  0  0
   15.7714   53.2783   13.8465 C   0  0  0  0  0  0  0  0  0  0  0  0
   15.1084   52.5568   14.8952 N   0  0  0  0  0  0  0  0  0  0  0  0
   15.9036   51.6963   15.6710 C   0  0  0  0  0  0  0  0  0  0  0  0
   17.1761   51.7978   15.6659 O   0  0  0  0  0  0  0  0  0  0  0  0
   15.3791   50.6418   16.5220 C   0  0  0  0  0  0  0  0  0  0  0  0
   14.1282   50.1127   16.6019 C   0  0  0  0  0  0  0  0  0  0  0  0
   14.1799   49.1370   17.5238 N   0  0  0  0  0  0  0  0  0  0  0  0
   15.4037   49.0490   18.0073 N   0  0  0  0  0  0  0  0  0  0  0  0
   15.8410   48.1160   19.0085 C   0  0  0  0  0  0  0  0  0  0  0  0
   15.2088   46.7503   18.7995 C   0  0  0  0  0  0  0  0  0  0  0  0
   13.9975   46.7402   19.7015 C   0  0  0  0  0  0  0  0  0  0  0  0
   14.4837   47.4879   20.9130 C   0  0  0  0  0  0  0  0  0  0  0  0
   15.5146   48.4953   20.4233 C   0  0  0  0  0  0  0  0  0  0  0  0
   16.1994   49.9439   17.4412 C   0  0  0  0  0  0  0  0  0  0  0  0
   17.6077   50.3224   17.5970 C   0  0  0  0  0  0  0  0  0  0  0  0
   17.8855   50.9339   19.0050 C   0  0  0  0  0  0  0  0  0  0  0  0
   18.1195   51.6812   17.7185 C   0  0  0  0  0  0  0  0  0  0  0  0
   16.8333   52.7480   13.1779 C   0  0  0  0  0  0  0  0  0  0  0  0
   17.4349   53.4272   12.1393 C   0  0  0  0  0  0  0  0  0  0  0  0
  1  2  1  0
  2  3  2  0
  3  4  1  0
  4  5  2  0
  5  6  1  0
  6  7  1  0
  7  8  2  0
  7  9  1  0
  9 10  1  0
 10 11  2  0
 11 12  1  0
 12 13  1  0
 13 14  1  0
 14 15  1  0
 15 16  1  0
 16 17  1  0
 12 18  1  0
 18 19  1  0
 19 20  1  0
 20 21  1  0
  5 22  1  0
 22 23  2  0
 23  2  1  0
 18  9  2  0
 21 19  1  0
 17 13  1  0
M  END
$$$$
