
     RDKit          3D

 24 27  0  0  0  0  0  0  0  0999 V2000
   13.9600   94.0915   63.3045 N   0  0  0  0  0  0  0  0  0  0  0  0
   12.6478   94.6309   63.1731 C   0  0  0  0  0  0  0  0  0  0  0  0
   11.6427   94.0718   63.9921 C   0  0  0  0  0  0  0  0  0  0  0  0
   10.3515   94.5184   63.9011 C   0  0  0  0  0  0  0  0  0  0  0  0
   10.0715   95.5150   62.9980 C   0  0  0  0  0  0  0  0  0  0  0  0
   11.0667   96.0467   62.2090 C   0  0  0  0  0  0  0  0  0  0  0  0
   12.4038   95.6061   62.2832 C   0  0  0  0  0  0  0  0  0  0  0  0
   13.3459   96.2725   61.3964 C   0  0  0  0  0  0  0  0  0  0  0  0
   12.8431   97.2681   60.4942 N   0  0  0  0  0  0  0  0  0  0  0  0
   11.8114   98.1863   60.7617 C   0  0  0  0  0  0  0  0  0  0  0  0
   11.2779   98.1950   61.8982 O   0  0  0  0  0  0  0  0  0  0  0  0
   11.3157   99.1666   59.7552 C   0  0  0  0  0  0  0  0  0  0  0  0
   10.3041  100.0490   60.0504 C   0  0  0  0  0  0  0  0  0  0  0  0
    9.8466  100.9521   59.1260 C   0  0  0  0  0  0  0  0  0  0  0  0
   10.4183  100.9781   57.8573 C   0  0  0  0  0  0  0  0  0  0  0  0
   11.4270  100.0906   57.5787 C   0  0  0  0  0  0  0  0  0  0  0  0
   11.9827  100.1374   56.3018 C   0  0  0  0  0  0  0  0  0  0  0  0
   11.3461  101.3857   55.0327 Br  0  0  0  0  0  0  0  0  0  0  0  0
   12.9987   99.2712   55.9643 C   0  0  0  0  0  0  0  0  0  0  0  0
   13.4461   98.3722   56.9016 C   0  0  0  0  0  0  0  0  0  0  0  0
   12.9114   98.3055   58.1759 C   0  0  0  0  0  0  0  0  0  0  0  0
   11.8941   99.1780   58.5028 C   0  0  0  0  0  0  0  0  0  0  0  0
   13.4034   97.3394   59.1586 C   0  0  0  0  0  0  0  0  0  0  0  0
   14.3255   96.5484   58.8668 O   0  0  0  0  0  0  0  0  0  0  0  0
  1  2  1  0
  2  3  2  0
  3  4  1  0
  4  5  2  0
  5  6  1  0
  6  7  2  0
  7  8  1  0
  8  9  1  0
  9 10  1  0
 10 11  2  0
 10 12  1  0
 12 13  2  0
 13 14  1  0
 14 15  2  0
 15 16  1  0
 16 17  2  0
 17 18  1  0
 17 19  1  0
 19 20  2  0
 20 21  1  0
 21 22  2  0
 21 23  1  0
 23 24  2  0
  7  2  1  0
 23  9  1  0
 22 12  1  0
 22 16  1  0
M  END
$$$$
