
     RDKit          3D

 23 24  0  0  0  0  0  0  0  0999 V2000
   41.3763   81.7293   54.3648 C   0  0  0  0  0  0  0  0  0  0  0  0
   40.7101   80.7345   53.4653 C   0  0  0  0  0  0  0  0  0  0  0  0
   39.5619   80.1079   54.1171 N   0  0  0  0  0  0  0  0  0  0  0  0
   39.5262   78.9429   54.6956 N   0  0  0  0  0  0  0  0  0  0  0  0
   38.3216   78.6524   55.2004 C   0  0  0  0  0  0  0  0  0  0  0  0
   37.5012   79.7515   54.9125 C   0  0  0  0  0  0  0  0  0  0  0  0
   38.2984   80.6344   54.2416 C   0  0  0  0  0  0  0  0  0  0  0  0
   37.9473   81.9636   53.7255 C   0  0  0  0  0  0  0  0  0  0  0  0
   36.6996   82.0306   53.0065 N   0  0  0  0  0  0  0  0  0  0  0  0
   36.5374   82.1641   51.6027 C   0  0  0  0  0  0  0  0  0  0  0  0
   37.6507   82.1449   50.7523 C   0  0  0  0  0  0  0  0  0  0  0  0
   37.4185   82.2483   49.3967 C   0  0  0  0  0  0  0  0  0  0  0  0
   36.1773   82.3674   48.8257 C   0  0  0  0  0  0  0  0  0  0  0  0
   35.1106   82.3799   49.7176 C   0  0  0  0  0  0  0  0  0  0  0  0
   35.2772   82.2817   51.0672 C   0  0  0  0  0  0  0  0  0  0  0  0
   34.1650   82.3001   51.9218 N   0  0  0  0  0  0  0  0  0  0  0  0
   32.8632   82.2909   51.3517 C   0  0  0  0  0  0  0  0  0  0  0  0
   32.7146   82.4728   50.0948 O   0  0  0  0  0  0  0  0  0  0  0  0
   31.7181   82.0934   52.0835 O   0  0  0  0  0  0  0  0  0  0  0  0
   30.4431   82.1951   51.4716 C   0  0  0  0  0  0  0  0  0  0  0  0
   30.2736   83.5247   50.7648 C   0  0  0  0  0  0  0  0  0  0  0  0
   30.3448   81.0889   50.4412 C   0  0  0  0  0  0  0  0  0  0  0  0
   29.3228   82.1003   52.4941 C   0  0  0  0  0  0  0  0  0  0  0  0
  1  2  1  0
  2  3  1  0
  3  4  1  0
  4  5  2  0
  5  6  1  0
  6  7  2  0
  7  8  1  0
  8  9  1  0
  9 10  1  0
 10 11  2  0
 11 12  1  0
 12 13  2  0
 13 14  1  0
 14 15  2  0
 15 16  1  0
 16 17  1  0
 17 18  2  0
 17 19  1  0
 19 20  1  0
 20 21  1  0
 20 22  1  0
 20 23  1  0
  7  3  1  0
 15 10  1  0
M  END
$$$$
