
     RDKit          3D

 28 31  0  0  0  0  0  0  0  0999 V2000
   16.2307  101.9639   48.8346 C   0  0  0  0  0  0  0  0  0  0  0  0
   15.8301  101.2052   50.0779 C   0  0  0  0  0  0  0  0  0  0  0  0
   15.2870   99.9812   50.1299 N   0  0  0  0  0  0  0  0  0  0  0  0
   15.0973   99.7043   51.4046 N   0  0  0  0  0  0  0  0  0  0  0  0
   15.5084  100.7270   52.1696 C   0  0  0  0  0  0  0  0  0  0  0  0
   15.4508  100.7700   53.6194 C   0  0  0  0  0  0  0  0  0  0  0  0
   16.1123  101.6143   54.4283 N   0  0  0  0  0  0  0  0  0  0  0  0
   15.8096  101.3539   55.6998 N   0  0  0  0  0  0  0  0  0  0  0  0
   14.9396  100.3308   55.7742 C   0  0  0  0  0  0  0  0  0  0  0  0
   14.3070   99.6640   56.8338 C   0  0  0  0  0  0  0  0  0  0  0  0
   13.4511   98.6341   56.6010 C   0  0  0  0  0  0  0  0  0  0  0  0
   12.7613   97.8946   57.5945 N   0  0  0  0  0  0  0  0  0  0  0  0
   12.8645   98.0814   58.9794 C   0  0  0  0  0  0  0  0  0  0  0  0
   13.6286   98.9494   59.4515 O   0  0  0  0  0  0  0  0  0  0  0  0
   12.0849   97.2697   59.9007 N   0  0  0  0  0  0  0  0  0  0  0  0
   12.5749   97.1839   61.2525 C   0  0  1  0  0  0  0  0  0  0  0  0
   11.3850   96.9267   62.1582 C   0  0  0  0  0  0  0  0  0  0  0  0
   11.0113   95.5738   61.8318 N   0  0  0  0  0  0  0  0  0  0  0  0
   10.4184   94.8800   62.9429 C   0  0  0  0  0  0  0  0  0  0  0  0
   12.1922   94.8786   61.4174 C   0  0  0  0  0  0  0  0  0  0  0  0
   13.3247   95.8663   61.3728 C   0  0  2  0  0  0  0  0  0  0  0  0
   14.1725   95.8180   62.6213 C   0  0  0  0  0  0  0  0  0  0  0  0
   14.9353   94.5363   62.6718 C   0  0  0  0  0  0  0  0  0  0  0  0
   13.2245   95.8563   63.8035 C   0  0  0  0  0  0  0  0  0  0  0  0
   13.2451   98.2892   55.2805 N   0  0  0  0  0  0  0  0  0  0  0  0
   13.8433   98.9187   54.2653 C   0  0  0  0  0  0  0  0  0  0  0  0
   14.7169   99.9670   54.4638 C   0  0  0  0  0  0  0  0  0  0  0  0
   15.9448  101.6134   51.3168 O   0  0  0  0  0  0  0  0  0  0  0  0
  1  2  1  0
  2  3  2  0
  3  4  1  0
  4  5  2  0
  5  6  1  0
  6  7  2  0
  7  8  1  0
  8  9  1  0
  9 10  2  0
 10 11  1  0
 11 12  1  0
 12 13  1  0
 13 14  2  0
 13 15  1  0
 16 15  1  6
 16 17  1  0
 17 18  1  0
 18 19  1  0
 18 20  1  0
 20 21  1  0
 21 22  1  1
 22 23  1  0
 22 24  1  0
 11 25  2  0
 25 26  1  0
 26 27  2  0
  5 28  1  0
 28  2  1  0
 27  6  1  0
 27  9  1  0
 21 16  1  0
M  END
$$$$
