
     RDKit          3D

 30 34  0  0  0  0  0  0  0  0999 V2000
   14.9373   92.4830   63.8475 C   0  0  0  0  0  0  0  0  0  0  0  0
   15.6551   93.3515   63.0333 C   0  0  0  0  0  0  0  0  0  0  0  0
   15.1464   94.5911   62.7058 C   0  0  0  0  0  0  0  0  0  0  0  0
   13.9175   95.0098   63.1707 C   0  0  0  0  0  0  0  0  0  0  0  0
   13.3603   96.3621   62.8146 C   0  0  0  0  0  0  0  0  0  0  0  0
   12.1954   96.1158   61.9048 C   0  0  0  0  0  0  0  0  0  0  0  0
   12.0034   97.1255   60.8303 C   0  0  0  0  0  0  0  0  0  0  0  0
   10.7584   97.8576   61.1051 C   0  0  0  0  0  0  0  0  0  0  0  0
   10.7118   99.1910   61.4370 C   0  0  0  0  0  0  0  0  0  0  0  0
    9.5194   99.7922   61.6957 C   0  0  0  0  0  0  0  0  0  0  0  0
    8.3207   99.0952   61.6363 C   0  0  0  0  0  0  0  0  0  0  0  0
    8.3325   97.7608   61.3077 C   0  0  0  0  0  0  0  0  0  0  0  0
    9.5628   97.1751   61.0495 C   0  0  0  0  0  0  0  0  0  0  0  0
   11.8638   96.4263   59.5018 C   0  0  0  0  0  0  0  0  0  0  0  0
   11.4011   97.4527   58.4966 C   0  0  0  0  0  0  0  0  0  0  0  0
   11.7667   98.7455   58.8821 N   0  0  0  0  0  0  0  0  0  0  0  0
   11.5445   99.7081   57.8396 C   0  0  0  0  0  0  0  0  0  0  0  0
   12.6410   99.8815   56.8887 C   0  0  0  0  0  0  0  0  0  0  0  0
   12.3816   99.8654   55.5370 C   0  0  0  0  0  0  0  0  0  0  0  0
   13.3960  100.0250   54.5892 C   0  0  0  0  0  0  0  0  0  0  0  0
   14.6995  100.2051   54.9909 C   0  0  0  0  0  0  0  0  0  0  0  0
   15.8405  100.3788   54.3090 N   0  0  0  0  0  0  0  0  0  0  0  0
   16.8688  100.5126   55.1564 C   0  0  0  0  0  0  0  0  0  0  0  0
   16.3513  100.4190   56.4295 C   0  0  0  0  0  0  0  0  0  0  0  0
   14.9770  100.2238   56.3484 C   0  0  0  0  0  0  0  0  0  0  0  0
   13.9676  100.0652   57.2701 C   0  0  0  0  0  0  0  0  0  0  0  0
   13.0482   98.9398   59.5081 C   0  0  0  0  0  0  0  0  0  0  0  0
   13.2145   98.0479   60.7115 C   0  0  0  0  0  0  0  0  0  0  0  0
   13.2183   94.1266   63.9820 C   0  0  0  0  0  0  0  0  0  0  0  0
   13.7122   92.8933   64.3145 C   0  0  0  0  0  0  0  0  0  0  0  0
  1  2  2  0
  2  3  1  0
  3  4  2  0
  4  5  1  0
  5  6  1  0
  6  7  1  0
  7  8  1  0
  8  9  2  0
  9 10  1  0
 10 11  2  0
 11 12  1  0
 12 13  2  0
  7 14  1  0
 14 15  1  0
 15 16  1  0
 16 17  1  0
 17 18  1  0
 18 19  2  0
 19 20  1  0
 20 21  2  0
 21 22  1  0
 22 23  1  0
 23 24  2  0
 24 25  1  0
 25 26  2  0
 16 27  1  0
 27 28  1  0
  4 29  1  0
 29 30  2  0
 30  1  1  0
 28  7  1  0
 13  8  1  0
 26 18  1  0
 25 21  1  0
M  END
$$$$
