
     RDKit          3D

 26 29  0  0  0  0  0  0  0  0999 V2000
   11.8659   98.9918   53.2851 C   0  0  0  0  0  0  0  0  0  0  0  0
   12.5942   99.4785   54.4591 N   0  0  0  0  0  0  0  0  0  0  0  0
   12.1187   99.2910   55.7045 C   0  0  0  0  0  0  0  0  0  0  0  0
   11.0275   98.6868   55.8744 O   0  0  0  0  0  0  0  0  0  0  0  0
   12.7877   99.7408   56.8273 C   0  0  0  0  0  0  0  0  0  0  0  0
   12.2341   99.5141   58.1438 C   0  0  0  0  0  0  0  0  0  0  0  0
   12.6788   98.4479   58.8829 C   0  0  0  0  0  0  0  0  0  0  0  0
   13.9032   97.3592   58.2603 Cl  0  0  0  0  0  0  0  0  0  0  0  0
   12.1855   98.1740   60.1593 C   0  0  0  0  0  0  0  0  0  0  0  0
   11.2215   98.9846   60.7168 C   0  0  0  0  0  0  0  0  0  0  0  0
   10.7767  100.0591   59.9660 C   0  0  0  0  0  0  0  0  0  0  0  0
   11.2673  100.3255   58.7054 C   0  0  0  0  0  0  0  0  0  0  0  0
   10.6618  101.7028   57.8060 Cl  0  0  0  0  0  0  0  0  0  0  0  0
   13.9846  100.4013   56.6045 C   0  0  0  0  0  0  0  0  0  0  0  0
   14.4552  100.5826   55.3066 C   0  0  0  0  0  0  0  0  0  0  0  0
   15.6376  101.2335   55.0633 C   0  0  0  0  0  0  0  0  0  0  0  0
   16.0608  101.3907   53.8035 N   0  0  0  0  0  0  0  0  0  0  0  0
   15.3851  100.9404   52.7313 C   0  0  0  0  0  0  0  0  0  0  0  0
   15.8996  101.1462   51.4220 N   0  0  0  0  0  0  0  0  0  0  0  0
   17.2476  101.6418   51.2327 C   0  0  0  0  0  0  0  0  0  0  0  0
   17.8682  100.9070   50.0556 C   0  0  0  0  0  0  0  0  0  0  0  0
   17.2065   99.6407   49.8128 N   0  0  0  0  0  0  0  0  0  0  0  0
   15.8114   99.8005   49.4611 C   0  0  0  0  0  0  0  0  0  0  0  0
   15.1203  100.8768   50.2317 C   0  0  0  0  0  0  0  0  0  0  0  0
   14.2264  100.3019   52.9622 N   0  0  0  0  0  0  0  0  0  0  0  0
   13.7538  100.1164   54.2149 C   0  0  0  0  0  0  0  0  0  0  0  0
  1  2  1  0
  2  3  1  0
  3  4  2  0
  3  5  1  0
  5  6  1  0
  6  7  2  0
  7  8  1  0
  7  9  1  0
  9 10  2  0
 10 11  1  0
 11 12  2  0
 12 13  1  0
  5 14  2  0
 14 15  1  0
 15 16  2  0
 16 17  1  0
 17 18  2  0
 18 19  1  0
 19 20  1  0
 20 21  1  0
 21 22  1  0
 22 23  1  0
 23 24  1  0
 18 25  1  0
 25 26  2  0
 26  2  1  0
 12  6  1  0
 26 15  1  0
 24 19  1  0
M  END
$$$$
