
     RDKit          3D

 26 28  0  0  0  0  0  0  0  0999 V2000
   -3.2325   65.7990   30.8805 C   0  0  0  0  0  0  0  0  0  0  0  0
   -3.7424   65.5875   32.2896 C   0  0  0  0  0  0  0  0  0  0  0  0
   -5.1458   65.1140   32.2125 C   0  0  0  0  0  0  0  0  0  0  0  0
   -6.1659   66.0274   32.4738 C   0  0  0  0  0  0  0  0  0  0  0  0
   -7.4890   65.6470   32.4163 C   0  0  0  0  0  0  0  0  0  0  0  0
   -7.7515   64.3253   32.0893 C   0  0  0  0  0  0  0  0  0  0  0  0
   -6.7420   63.4236   31.8313 C   0  0  0  0  0  0  0  0  0  0  0  0
   -7.1091   62.0528   31.4980 C   0  0  0  0  0  0  0  0  0  0  0  0
   -6.1713   61.1521   31.0060 C   0  0  0  0  0  0  0  0  0  0  0  0
   -6.5003   59.8517   30.6880 C   0  0  0  0  0  0  0  0  0  0  0  0
   -5.5221   58.9636   30.1978 N   0  0  0  0  0  0  0  0  0  0  0  0
   -4.3256   59.4340   29.5082 C   0  0  0  0  0  0  0  0  0  0  0  0
   -3.3201   58.4326   29.4035 N   0  0  0  0  0  0  0  0  0  0  0  0
   -2.3667   58.4357   30.4878 C   0  0  0  0  0  0  0  0  0  0  0  0
   -1.1975   59.3625   30.2654 C   0  0  0  0  0  0  0  0  0  0  0  0
   -1.5692   60.6754   30.2013 F   0  0  0  0  0  0  0  0  0  0  0  0
   -0.3848   59.2584   31.4062 F   0  0  0  0  0  0  0  0  0  0  0  0
   -0.3905   58.9478   29.2266 F   0  0  0  0  0  0  0  0  0  0  0  0
   -7.7895   59.4323   30.8610 C   0  0  0  0  0  0  0  0  0  0  0  0
   -8.2307   58.1665   30.5815 C   0  0  0  0  0  0  0  0  0  0  0  0
   -9.5406   57.7512   30.7624 C   0  0  0  0  0  0  0  0  0  0  0  0
  -10.4793   58.6321   31.2482 C   0  0  0  0  0  0  0  0  0  0  0  0
  -10.0494   59.9044   31.5324 C   0  0  0  0  0  0  0  0  0  0  0  0
   -8.7459   60.3310   31.3565 C   0  0  0  0  0  0  0  0  0  0  0  0
   -8.3577   61.5850   31.6467 N   0  0  0  0  0  0  0  0  0  0  0  0
   -5.4730   63.8380   31.8990 N   0  0  0  0  0  0  0  0  0  0  0  0
  1  2  1  0
  2  3  1  0
  3  4  2  0
  4  5  1  0
  5  6  2  0
  6  7  1  0
  7  8  1  0
  8  9  2  0
  9 10  1  0
 10 11  1  0
 11 12  1  0
 12 13  1  0
 13 14  1  0
 14 15  1  0
 15 16  1  0
 15 17  1  0
 15 18  1  0
 10 19  2  0
 19 20  1  0
 20 21  2  0
 21 22  1  0
 22 23  2  0
 23 24  1  0
 24 25  2  0
  7 26  2  0
 26  3  1  0
 25  8  1  0
 24 19  1  0
M  END
$$$$
