
     RDKit          3D

 26 28  0  0  0  0  0  0  0  0999 V2000
   15.6454   94.8513   61.5043 C   0  0  0  0  0  0  0  0  0  0  0  0
   14.3853   95.6730   61.6615 C   0  0  0  0  0  0  0  0  0  0  0  0
   13.4660   95.4169   60.6700 O   0  0  0  0  0  0  0  0  0  0  0  0
   12.0069   96.1701   60.8135 P   0  0  0  0  0  5  0  0  0  0  0  0
   11.0027   95.2874   60.0522 O   0  0  0  0  0  0  0  0  0  0  0  0
   11.4114   96.2184   62.3923 O   0  0  0  0  0  0  0  0  0  0  0  0
   10.0856   96.6188   62.4473 C   0  0  0  0  0  0  0  0  0  0  0  0
    9.5755   96.6592   63.8717 C   0  0  0  0  0  0  0  0  0  0  0  0
   11.9346   97.7747   60.0427 C   0  0  0  0  0  0  0  0  0  0  0  0
   11.1693   98.7782   60.5908 C   0  0  0  0  0  0  0  0  0  0  0  0
   11.0686  100.0379   60.0503 C   0  0  0  0  0  0  0  0  0  0  0  0
   11.7538  100.3607   58.8961 C   0  0  0  0  0  0  0  0  0  0  0  0
   12.5301   99.3687   58.3258 C   0  0  0  0  0  0  0  0  0  0  0  0
   12.6176   98.1091   58.8852 C   0  0  0  0  0  0  0  0  0  0  0  0
   13.2021   99.7337   57.1672 O   0  0  0  0  0  0  0  0  0  0  0  0
   12.6890  100.6928   56.2612 C   0  0  2  0  0  0  0  0  0  0  0  0
   13.8332  101.2045   55.4566 C   0  0  0  0  0  0  0  0  0  0  0  0
   14.5463  102.1105   55.9280 O   0  0  0  0  0  0  0  0  0  0  0  0
   14.1260  100.6843   54.1733 N   0  0  0  0  0  0  0  0  0  0  0  0
   15.0744  101.2478   53.2463 C   0  0  0  0  0  0  0  0  0  0  0  0
   14.8664  100.7161   51.8415 C   0  0  0  0  0  0  0  0  0  0  0  0
   14.8375   99.2259   51.7903 C   0  0  0  0  0  0  0  0  0  0  0  0
   14.4332   98.5813   53.0894 C   0  0  0  0  0  0  0  0  0  0  0  0
   13.4099   99.4791   53.7517 C   0  0  0  0  0  0  0  0  0  0  0  0
   12.0588  101.8599   56.9523 C   0  0  0  0  0  0  0  0  0  0  0  0
   11.6775  101.6526   58.3077 N   0  0  0  0  0  0  0  0  0  0  0  0
  1  2  1  0
  2  3  1  0
  3  4  1  0
  4  5  2  0
  4  6  1  0
  6  7  1  0
  7  8  1  0
  4  9  1  0
  9 10  2  0
 10 11  1  0
 11 12  2  0
 12 13  1  0
 13 14  2  0
 13 15  1  0
 15 16  1  0
 16 17  1  1
 17 18  2  0
 17 19  1  0
 19 20  1  0
 20 21  1  0
 21 22  1  0
 22 23  1  0
 23 24  1  0
 16 25  1  0
 25 26  1  0
 14  9  1  0
 24 19  1  0
 26 12  1  0
M  END
$$$$
