
     RDKit          3D

 27 28  0  0  0  0  0  0  0  0999 V2000
   21.1298   51.8520   16.1124 C   0  0  0  0  0  0  0  0  0  0  0  0
   21.7323   50.8168   16.8341 O   0  0  0  0  0  0  0  0  0  0  0  0
   20.8222   49.7632   16.8728 C   0  0  0  0  0  0  0  0  0  0  0  0
   20.0908   49.6683   18.1983 C   0  0  0  0  0  0  0  0  0  0  0  0
   18.9801   48.6461   17.9936 C   0  0  0  0  0  0  0  0  0  0  0  0
   17.7357   49.0777   18.5184 N   0  0  0  0  0  0  0  0  0  0  0  0
   17.2620   48.6970   19.8124 C   0  0  0  0  0  0  0  0  0  0  0  0
   16.6701   47.3273   19.9167 C   0  0  0  0  0  0  0  0  0  0  0  0
   15.3224   47.3990   20.1443 O   0  0  0  0  0  0  0  0  0  0  0  0
   14.7997   46.2060   20.6546 C   0  0  0  0  0  0  0  0  0  0  0  0
   16.8850   49.9532   17.7463 C   0  0  0  0  0  0  0  0  0  0  0  0
   15.5445   50.0863   17.9824 C   0  0  0  0  0  0  0  0  0  0  0  0
   14.8267   50.9653   17.1865 C   0  0  0  0  0  0  0  0  0  0  0  0
   13.3822   51.1262   17.4242 C   0  0  0  0  0  0  0  0  0  0  0  0
   15.4239   51.6693   16.2105 N   0  0  0  0  0  0  0  0  0  0  0  0
   16.7350   51.5479   15.9699 C   0  0  0  0  0  0  0  0  0  0  0  0
   17.4385   52.2640   14.9649 N   0  0  0  0  0  0  0  0  0  0  0  0
   16.8582   53.2123   14.1182 C   0  0  0  0  0  0  0  0  0  0  0  0
   17.5193   53.6927   13.0194 C   0  0  0  0  0  0  0  0  0  0  0  0
   16.8804   54.6210   12.1707 C   0  0  0  0  0  0  0  0  0  0  0  0
   15.6040   55.0567   12.4241 C   0  0  0  0  0  0  0  0  0  0  0  0
   15.0031   55.9599   11.5828 O   0  0  0  0  0  0  0  0  0  0  0  0
   15.7432   56.6539   10.6093 C   0  0  0  0  0  0  0  0  0  0  0  0
   14.9661   54.5527   13.5425 C   0  0  0  0  0  0  0  0  0  0  0  0
   13.1870   55.1686   13.8817 Br  0  0  0  0  0  0  0  0  0  0  0  0
   15.5471   53.6536   14.3885 C   0  0  0  0  0  0  0  0  0  0  0  0
   17.4141   50.6867   16.7549 N   0  0  0  0  0  0  0  0  0  0  0  0
  1  2  1  0
  2  3  1  0
  3  4  1  0
  4  5  1  0
  5  6  1  0
  6  7  1  0
  7  8  1  0
  8  9  1  0
  9 10  1  0
  6 11  1  0
 11 12  2  0
 12 13  1  0
 13 14  1  0
 13 15  2  0
 15 16  1  0
 16 17  1  0
 17 18  1  0
 18 19  2  0
 19 20  1  0
 20 21  2  0
 21 22  1  0
 22 23  1  0
 21 24  1  0
 24 25  1  0
 24 26  2  0
 16 27  2  0
 27 11  1  0
 26 18  1  0
M  END
$$$$
