
     RDKit          3D

 22 24  0  0  0  0  0  0  0  0999 V2000
   16.4246   57.2866   13.9517 C   0  0  0  0  0  0  0  0  0  0  0  0
   15.4289   56.3131   13.5564 N   0  0  0  0  0  0  0  0  0  0  0  0
   15.5010   54.9815   13.7344 C   0  0  0  0  0  0  0  0  0  0  0  0
   16.8925   54.1776   14.5194 S   0  0  0  0  0  0  0  0  0  0  0  0
   16.5766   52.3984   14.7214 C   0  0  0  0  0  0  0  0  0  0  0  0
   15.6329   52.1523   15.8436 C   0  0  0  0  0  0  0  0  0  0  0  0
   15.1381   50.8850   15.8818 O   0  0  0  0  0  0  0  0  0  0  0  0
   14.6016   50.1215   16.8768 C   0  0  0  0  0  0  0  0  0  0  0  0
   14.9145   50.4624   18.2084 C   0  0  0  0  0  0  0  0  0  0  0  0
   14.4237   49.7513   19.2694 C   0  0  0  0  0  0  0  0  0  0  0  0
   13.6067   48.6814   19.0051 C   0  0  0  0  0  0  0  0  0  0  0  0
   13.2724   48.3083   17.7309 C   0  0  0  0  0  0  0  0  0  0  0  0
   13.7791   49.0401   16.6640 C   0  0  0  0  0  0  0  0  0  0  0  0
   14.3871   54.4663   13.2304 N   0  0  0  0  0  0  0  0  0  0  0  0
   13.6469   55.4540   12.7538 N   0  0  0  0  0  0  0  0  0  0  0  0
   14.2786   56.6344   12.9450 C   0  0  0  0  0  0  0  0  0  0  0  0
   13.7498   57.9396   12.5400 C   0  0  0  0  0  0  0  0  0  0  0  0
   14.2961   59.0908   13.0360 C   0  0  0  0  0  0  0  0  0  0  0  0
   13.7774   60.3136   12.6361 C   0  0  0  0  0  0  0  0  0  0  0  0
   12.7535   60.3457   11.7739 N   0  0  0  0  0  0  0  0  0  0  0  0
   12.2035   59.2242   11.2758 C   0  0  0  0  0  0  0  0  0  0  0  0
   12.6785   57.9923   11.6384 C   0  0  0  0  0  0  0  0  0  0  0  0
  1  2  1  0
  2  3  1  0
  3  4  1  0
  4  5  1  0
  5  6  1  0
  6  7  1  0
  7  8  1  0
  8  9  2  0
  9 10  1  0
 10 11  2  0
 11 12  1  0
 12 13  2  0
  3 14  2  0
 14 15  1  0
 15 16  2  0
 16 17  1  0
 17 18  2  0
 18 19  1  0
 19 20  2  0
 20 21  1  0
 21 22  2  0
 16  2  1  0
 22 17  1  0
 13  8  1  0
M  END
$$$$
