
     RDKit          3D

 39 42  0  0  0  0  0  0  0  0999 V2000
   19.8875   52.6687   10.9829 C   0  0  0  0  0  0  0  0  0  0  0  0
   19.0776   52.9394   12.2290 C   0  0  0  0  0  0  0  0  0  0  0  0
   18.6607   52.0477   13.1301 N   0  0  0  0  0  0  0  0  0  0  0  0
   17.9764   52.7071   14.0745 C   0  0  0  0  0  0  0  0  0  0  0  0
   17.3346   52.1225   15.2687 C   0  0  0  0  0  0  0  0  0  0  0  0
   16.5186   52.7627   15.9707 O   0  0  0  0  0  0  0  0  0  0  0  0
   17.6202   50.7898   15.6777 N   0  0  0  0  0  0  0  0  0  0  0  0
   16.9068   50.0875   16.6835 C   0  0  0  0  0  0  0  0  0  0  0  0
   17.5519   49.0915   17.4051 C   0  0  0  0  0  0  0  0  0  0  0  0
   16.8644   48.3973   18.3864 C   0  0  0  0  0  0  0  0  0  0  0  0
   15.5377   48.6722   18.6703 C   0  0  0  0  0  0  0  0  0  0  0  0
   14.8653   47.8843   19.7353 C   0  0  0  0  0  0  0  0  0  0  0  0
   15.8708   47.5022   20.7078 N   0  0  0  0  0  0  0  0  0  0  0  0
   15.7848   46.1016   21.0227 C   0  0  0  0  0  0  0  0  0  0  0  0
   14.8688   45.9407   22.2161 C   0  0  0  0  0  0  0  0  0  0  0  0
   15.4793   46.4843   23.3934 N   0  0  0  0  0  0  0  0  0  0  0  0
   16.2452   45.4152   24.0474 C   0  0  0  0  0  0  0  0  0  0  0  0
   16.3406   47.6230   23.1202 C   0  0  0  0  0  0  0  0  0  0  0  0
   15.8557   48.3213   21.8780 C   0  0  0  0  0  0  0  0  0  0  0  0
   14.8800   49.6592   17.9633 C   0  0  0  0  0  0  0  0  0  0  0  0
   13.4522   49.9611   18.2645 C   0  0  0  0  0  0  0  0  0  0  0  0
   12.6600   48.8577   18.3225 F   0  0  0  0  0  0  0  0  0  0  0  0
   13.0150   50.8522   17.2874 F   0  0  0  0  0  0  0  0  0  0  0  0
   13.4376   50.6842   19.4604 F   0  0  0  0  0  0  0  0  0  0  0  0
   15.5876   50.3352   16.9919 C   0  0  0  0  0  0  0  0  0  0  0  0
   17.9786   54.0243   13.7381 C   0  0  0  0  0  0  0  0  0  0  0  0
   17.3577   55.2035   14.4448 C   0  0  1  0  0  0  0  0  0  0  0  0
   18.3493   56.3150   14.4185 C   0  0  0  0  0  0  0  0  0  0  0  0
   16.1236   55.5129   13.6390 C   0  0  0  0  0  0  0  0  0  0  0  0
   14.9308   55.8588   14.2362 C   0  0  0  0  0  0  0  0  0  0  0  0
   13.7900   56.1383   13.5101 C   0  0  0  0  0  0  0  0  0  0  0  0
   13.8158   56.0765   12.1340 C   0  0  0  0  0  0  0  0  0  0  0  0
   12.6040   56.3679   11.2965 C   0  0  0  0  0  0  0  0  0  0  0  0
   11.5131   56.7044   12.0361 F   0  0  0  0  0  0  0  0  0  0  0  0
   12.2974   55.3050   10.4669 F   0  0  0  0  0  0  0  0  0  0  0  0
   12.9621   57.4282   10.4641 F   0  0  0  0  0  0  0  0  0  0  0  0
   15.0157   55.7289   11.5375 C   0  0  0  0  0  0  0  0  0  0  0  0
   16.1529   55.4503   12.2573 C   0  0  0  0  0  0  0  0  0  0  0  0
   18.6680   54.1025   12.6003 O   0  0  0  0  0  0  0  0  0  0  0  0
  1  2  1  0
  2  3  2  0
  3  4  1  0
  4  5  1  0
  5  6  2  0
  5  7  1  0
  7  8  1  0
  8  9  2  0
  9 10  1  0
 10 11  2  0
 11 12  1  0
 12 13  1  0
 13 14  1  0
 14 15  1  0
 15 16  1  0
 16 17  1  0
 16 18  1  0
 18 19  1  0
 11 20  1  0
 20 21  1  0
 21 22  1  0
 21 23  1  0
 21 24  1  0
 20 25  2  0
  4 26  2  0
 26 27  1  0
 27 28  1  6
 27 29  1  0
 29 30  2  0
 30 31  1  0
 31 32  2  0
 32 33  1  0
 33 34  1  0
 33 35  1  0
 33 36  1  0
 32 37  1  0
 37 38  2  0
 26 39  1  0
 39  2  1  0
 25  8  1  0
 38 29  1  0
 19 13  1  0
M  END
$$$$
