
     RDKit          3D

 26 30  0  0  0  0  0  0  0  0999 V2000
   15.8338   51.7708   16.7084 O   0  0  0  0  0  0  0  0  0  0  0  0
   17.0028   51.4482   16.2999 C   0  0  0  0  0  0  0  0  0  0  0  0
   17.4706   52.0468   15.0432 C   0  0  0  0  0  0  0  0  0  0  0  0
   16.6367   53.2601   14.7160 C   0  0  0  0  0  0  0  0  0  0  0  0
   16.8137   53.6381   13.2735 C   0  0  0  0  0  0  0  0  0  0  0  0
   17.7457   53.1906   12.3725 C   0  0  0  0  0  0  0  0  0  0  0  0
   17.5101   53.8139   11.2071 N   0  0  0  0  0  0  0  0  0  0  0  0
   16.4625   54.6374   11.3445 C   0  0  0  0  0  0  0  0  0  0  0  0
   15.8131   55.5014   10.4634 C   0  0  0  0  0  0  0  0  0  0  0  0
   14.7305   56.2586   10.8603 C   0  0  0  0  0  0  0  0  0  0  0  0
   14.2941   56.1509   12.1483 C   0  0  0  0  0  0  0  0  0  0  0  0
   14.9065   55.3076   13.0573 C   0  0  0  0  0  0  0  0  0  0  0  0
   15.9926   54.5554   12.6385 C   0  0  0  0  0  0  0  0  0  0  0  0
   17.7588   50.5462   17.0775 N   0  0  0  0  0  0  0  0  0  0  0  0
   19.0746   50.0603   16.7319 C   0  0  0  0  0  0  0  0  0  0  0  0
   19.2516   48.7643   17.4956 C   0  0  0  0  0  0  0  0  0  0  0  0
   17.9320   48.5223   18.1858 C   0  0  0  0  0  0  0  0  0  0  0  0
   17.3939   49.9536   18.3161 C   0  0  0  0  0  0  0  0  0  0  0  0
   15.9187   49.8963   18.5412 C   0  0  0  0  0  0  0  0  0  0  0  0
   15.1610   48.7871   18.3279 N   0  0  0  0  0  0  0  0  0  0  0  0
   13.8814   49.0586   18.6211 C   0  0  0  0  0  0  0  0  0  0  0  0
   12.7223   48.1345   18.5324 C   0  0  0  0  0  0  0  0  0  0  0  0
   12.9127   46.6785   18.7163 C   0  0  0  0  0  0  0  0  0  0  0  0
   12.3467   47.4869   19.8354 C   0  0  0  0  0  0  0  0  0  0  0  0
   13.8937   50.3479   19.0116 N   0  0  0  0  0  0  0  0  0  0  0  0
   15.1059   50.8120   18.9537 O   0  0  0  0  0  0  0  0  0  0  0  0
  1  2  2  0
  2  3  1  0
  3  4  1  0
  4  5  1  0
  5  6  2  0
  6  7  1  0
  7  8  1  0
  8  9  2  0
  9 10  1  0
 10 11  2  0
 11 12  1  0
 12 13  2  0
  2 14  1  0
 14 15  1  0
 15 16  1  0
 16 17  1  0
 17 18  1  0
 18 19  1  0
 19 20  2  0
 20 21  1  0
 21 22  1  0
 22 23  1  0
 23 24  1  0
 21 25  2  0
 25 26  1  0
 13  5  1  0
 18 14  1  0
 26 19  1  0
 13  8  1  0
 24 22  1  0
M  END
$$$$
