
     RDKit          3D

 30 33  0  0  0  0  0  0  0  0999 V2000
   15.0087   93.2882   63.4653 C   0  0  0  0  0  0  0  0  0  0  0  0
   14.8493   94.7615   63.7767 C   0  0  0  0  0  0  0  0  0  0  0  0
   16.1519   95.5198   63.5764 C   0  0  0  0  0  0  0  0  0  0  0  0
   13.8808   95.3888   63.0358 O   0  0  0  0  0  0  0  0  0  0  0  0
   12.5214   95.3368   63.0708 C   0  0  0  0  0  0  0  0  0  0  0  0
   11.8730   94.6199   64.0889 C   0  0  0  0  0  0  0  0  0  0  0  0
   10.4990   94.5773   64.1034 C   0  0  0  0  0  0  0  0  0  0  0  0
    9.6507   93.7043   65.3459 Cl  0  0  0  0  0  0  0  0  0  0  0  0
    9.7655   95.2336   63.1267 C   0  0  0  0  0  0  0  0  0  0  0  0
    8.0033   95.1945   63.1330 Cl  0  0  0  0  0  0  0  0  0  0  0  0
   10.3960   95.9339   62.1332 C   0  0  0  0  0  0  0  0  0  0  0  0
   11.8074   95.9924   62.0976 C   0  0  0  0  0  0  0  0  0  0  0  0
   12.3839   96.7876   61.0175 C   0  0  0  0  0  0  0  0  0  0  0  0
   13.6351   96.7872   60.8807 O   0  0  0  0  0  0  0  0  0  0  0  0
   11.6490   97.5636   60.1045 N   0  0  0  0  0  0  0  0  0  0  0  0
   11.8370   99.0089   60.1306 C   0  0  2  0  0  0  0  0  0  0  0  0
   10.5691   99.6170   59.6401 C   0  0  0  0  0  0  0  0  0  0  0  0
   10.5135  100.1084   58.2437 C   0  0  0  0  0  0  0  0  0  0  0  0
   11.8260  100.7790   57.8040 C   0  0  0  0  0  0  0  0  0  0  0  0
   12.8370   99.7588   58.0605 N   0  0  0  0  0  0  0  0  0  0  0  0
   13.5513   99.1209   57.0191 C   0  0  0  0  0  0  0  0  0  0  0  0
   13.7080   97.7982   56.8957 N   0  0  0  0  0  0  0  0  0  0  0  0
   14.3842   97.2365   55.8776 C   0  0  0  0  0  0  0  0  0  0  0  0
   14.9449   97.9785   54.9186 N   0  0  0  0  0  0  0  0  0  0  0  0
   14.8283   99.3114   54.9786 C   0  0  0  0  0  0  0  0  0  0  0  0
   15.2783  100.3147   54.1809 N   0  0  0  0  0  0  0  0  0  0  0  0
   14.8914  101.4857   54.6894 C   0  0  0  0  0  0  0  0  0  0  0  0
   14.1824  101.2445   55.8296 C   0  0  0  0  0  0  0  0  0  0  0  0
   14.1333   99.8879   56.0249 C   0  0  0  0  0  0  0  0  0  0  0  0
   13.0535   99.4682   59.4484 C   0  0  0  0  0  0  0  0  0  0  0  0
  1  2  1  0
  2  3  1  0
  2  4  1  0
  4  5  1  0
  5  6  2  0
  6  7  1  0
  7  8  1  0
  7  9  2  0
  9 10  1  0
  9 11  1  0
 11 12  2  0
 12 13  1  0
 13 14  2  0
 13 15  1  0
 16 15  1  6
 16 17  1  0
 17 18  1  0
 18 19  1  0
 19 20  1  0
 20 21  1  0
 21 22  2  0
 22 23  1  0
 23 24  2  0
 24 25  1  0
 25 26  1  0
 26 27  1  0
 27 28  2  0
 28 29  1  0
 20 30  1  0
 12  5  1  0
 30 16  1  0
 29 21  1  0
 29 25  2  0
M  END
$$$$
