
     RDKit          3D

 25 27  0  0  0  0  0  0  0  0999 V2000
   10.2864   65.9203   11.8552 C   0  0  0  0  0  0  0  0  0  0  0  0
   11.0163   64.7535   11.1823 C   0  0  0  0  0  0  0  0  0  0  0  0
   11.8303   65.3234   10.0036 C   0  0  0  0  0  0  0  0  0  0  0  0
   11.9052   64.1480   12.1300 N   0  0  0  0  0  0  0  0  0  0  0  0
   12.2043   62.7473   12.1242 C   0  0  0  0  0  0  0  0  0  0  0  0
   13.0713   62.2136   13.0549 C   0  0  0  0  0  0  0  0  0  0  0  0
   13.3081   60.8516   12.9944 C   0  0  0  0  0  0  0  0  0  0  0  0
   12.7321   60.0280   12.0694 C   0  0  0  0  0  0  0  0  0  0  0  0
   12.9820   58.5919   12.0180 C   0  0  0  0  0  0  0  0  0  0  0  0
   13.7572   57.8158   12.8385 C   0  0  0  0  0  0  0  0  0  0  0  0
   13.7094   56.5072   12.4031 C   0  0  0  0  0  0  0  0  0  0  0  0
   14.3957   55.3692   13.0039 C   0  0  0  0  0  0  0  0  0  0  0  0
   13.6698   54.4227   13.3954 O   0  0  0  0  0  0  0  0  0  0  0  0
   15.8033   55.3073   13.1483 N   0  0  0  0  0  0  0  0  0  0  0  0
   16.7714   56.3651   12.9785 C   0  0  0  0  0  0  0  0  0  0  0  0
   17.8752   55.6489   12.2190 C   0  0  0  0  0  0  0  0  0  0  0  0
   17.9619   54.3464   12.9888 C   0  0  0  0  0  0  0  0  0  0  0  0
   16.5590   54.1286   13.5110 C   0  0  1  0  0  0  0  0  0  0  0  0
   16.5297   54.0428   14.9909 C   0  0  0  0  0  0  0  0  0  0  0  0
   16.4738   52.7690   15.5970 N   0  0  0  0  0  0  0  0  0  0  0  0
   16.5545   55.0686   15.7348 O   0  0  0  0  0  0  0  0  0  0  0  0
   12.8965   56.4986   11.3119 N   0  0  0  0  0  0  0  0  0  0  0  0
   12.4791   57.7506   11.1090 N   0  0  0  0  0  0  0  0  0  0  0  0
   11.8628   60.6101   11.1467 C   0  0  0  0  0  0  0  0  0  0  0  0
   11.6288   61.9471   11.2049 N   0  0  0  0  0  0  0  0  0  0  0  0
  1  2  1  0
  2  3  1  0
  2  4  1  0
  4  5  1  0
  5  6  2  0
  6  7  1  0
  7  8  2  0
  8  9  1  0
  9 10  2  0
 10 11  1  0
 11 12  1  0
 12 13  2  0
 12 14  1  0
 14 15  1  0
 15 16  1  0
 16 17  1  0
 17 18  1  0
 18 19  1  1
 19 20  1  0
 19 21  2  0
 11 22  2  0
 22 23  1  0
  8 24  1  0
 24 25  2  0
 25  5  1  0
 23  9  1  0
 18 14  1  0
M  END
$$$$
