
     RDKit          3D

 23 24  0  0  0  0  0  0  0  0999 V2000
   17.9389   56.1881   13.5978 C   0  0  0  0  0  0  0  0  0  0  0  0
   16.5497   55.7222   13.2198 C   0  0  0  0  0  0  0  0  0  0  0  0
   15.6401   56.8201   13.4344 N   0  0  0  0  0  0  0  0  0  0  0  0
   14.5185   56.9167   12.5774 C   0  0  0  0  0  0  0  0  0  0  0  0
   14.1596   55.9090   11.8718 O   0  0  0  0  0  0  0  0  0  0  0  0
   13.7000   58.1177   12.4216 C   0  0  0  0  0  0  0  0  0  0  0  0
   12.6244   58.1217   11.5656 C   0  0  0  0  0  0  0  0  0  0  0  0
   11.8686   59.2386   11.4244 N   0  0  0  0  0  0  0  0  0  0  0  0
   12.1411   60.3631   12.1063 C   0  0  0  0  0  0  0  0  0  0  0  0
   13.2177   60.3764   12.9702 C   0  0  0  0  0  0  0  0  0  0  0  0
   13.5073   61.5201   13.6736 F   0  0  0  0  0  0  0  0  0  0  0  0
   13.9968   59.2623   13.1312 C   0  0  0  0  0  0  0  0  0  0  0  0
   16.2147   54.4986   14.0111 C   0  0  0  0  0  0  0  0  0  0  0  0
   15.1987   54.7313   15.0902 C   0  0  0  0  0  0  0  0  0  0  0  0
   15.1695   53.4517   15.9408 C   0  0  0  0  0  0  0  0  0  0  0  0
   15.1561   52.3098   15.0495 N   0  0  0  0  0  0  0  0  0  0  0  0
   15.6017   51.0212   15.4404 C   0  0  0  0  0  0  0  0  0  0  0  0
   16.0052   50.2298   14.5527 O   0  0  0  0  0  0  0  0  0  0  0  0
   15.5752   50.6602   16.8664 C   0  0  1  0  0  0  0  0  0  0  0  0
   14.3129   49.9307   17.2471 C   0  0  0  0  0  0  0  0  0  0  0  0
   16.7336   49.8188   17.1832 N   0  0  0  0  0  0  0  0  0  0  0  0
   14.6517   52.5573   13.7010 C   0  0  0  0  0  0  0  0  0  0  0  0
   15.6802   53.4569   13.0393 C   0  0  0  0  0  0  0  0  0  0  0  0
  1  2  1  0
  2  3  1  0
  3  4  1  0
  4  5  2  0
  4  6  1  0
  6  7  2  0
  7  8  1  0
  8  9  2  0
  9 10  1  0
 10 11  1  0
 10 12  2  0
  2 13  1  0
 13 14  1  0
 14 15  1  0
 15 16  1  0
 16 17  1  0
 17 18  2  0
 17 19  1  0
 19 20  1  6
 19 21  1  0
 16 22  1  0
 22 23  1  0
 12  6  1  0
 23 13  1  0
M  END
$$$$
