
     RDKit          3D

 24 28  0  0  0  0  0  0  0  0999 V2000
   14.4601  101.3107   53.5877 O   0  0  0  0  0  0  0  0  0  0  0  0
   15.0467  100.8396   54.5858 C   0  0  0  0  0  0  0  0  0  0  0  0
   16.4587  100.9206   54.6874 N   0  0  0  0  0  0  0  0  0  0  0  0
   17.1104   99.9459   55.5414 C   0  0  0  0  0  0  0  0  0  0  0  0
   16.4601   99.7664   56.8748 C   0  0  0  0  0  0  0  0  0  0  0  0
   14.9843   99.6816   56.7679 C   0  0  0  0  0  0  0  0  0  0  0  0
   14.0885   99.1502   57.6123 N   0  0  0  0  0  0  0  0  0  0  0  0
   12.8419   99.2888   57.1243 C   0  0  0  0  0  0  0  0  0  0  0  0
   11.6076   98.8362   57.7582 C   0  0  0  0  0  0  0  0  0  0  0  0
   10.3759   99.0900   57.1939 C   0  0  0  0  0  0  0  0  0  0  0  0
    9.1954   98.6584   57.7980 C   0  0  0  0  0  0  0  0  0  0  0  0
    9.2289   97.9624   58.9823 C   0  0  0  0  0  0  0  0  0  0  0  0
   10.4643   97.7005   59.5607 C   0  0  0  0  0  0  0  0  0  0  0  0
   10.8368   97.0585   60.6900 N   0  0  0  0  0  0  0  0  0  0  0  0
   12.1787   97.0998   60.7657 C   0  0  0  0  0  0  0  0  0  0  0  0
   12.9563   96.4875   61.8888 C   0  0  0  0  0  0  0  0  0  0  0  0
   13.3437   95.0517   61.5328 C   0  0  0  0  0  0  0  0  0  0  0  0
   14.5933   94.7173   62.3172 C   0  0  0  0  0  0  0  0  0  0  0  0
   14.7377   93.3536   62.8997 C   0  0  0  0  0  0  0  0  0  0  0  0
   15.5684   93.7773   61.7300 C   0  0  0  0  0  0  0  0  0  0  0  0
   12.6343   97.7453   59.7201 O   0  0  0  0  0  0  0  0  0  0  0  0
   11.6288   98.1371   58.9464 C   0  0  0  0  0  0  0  0  0  0  0  0
   12.9742   99.9392   55.9165 C   0  0  0  0  0  0  0  0  0  0  0  0
   14.3047  100.1996   55.6640 C   0  0  0  0  0  0  0  0  0  0  0  0
  1  2  2  0
  2  3  1  0
  3  4  1  0
  4  5  1  0
  5  6  1  0
  6  7  1  0
  7  8  1  0
  8  9  1  0
  9 10  2  0
 10 11  1  0
 11 12  2  0
 12 13  1  0
 13 14  1  0
 14 15  2  0
 15 16  1  0
 16 17  1  0
 17 18  1  0
 18 19  1  0
 19 20  1  0
 15 21  1  0
 21 22  1  0
  8 23  2  0
 23 24  1  0
 24  2  1  0
 24  6  2  0
 22  9  1  0
 22 13  2  0
 20 18  1  0
M  END
$$$$
