
     RDKit          3D

 22 23  0  0  0  0  0  0  0  0999 V2000
   42.5281   83.0762   57.3442 C   0  0  0  0  0  0  0  0  0  0  0  0
   42.0799   82.1204   56.2721 C   0  0  0  0  0  0  0  0  0  0  0  0
   40.6512   82.2395   56.1107 N   0  0  0  0  0  0  0  0  0  0  0  0
   40.0588   82.2928   54.7926 C   0  0  0  0  0  0  0  0  0  0  0  0
   40.8214   82.4389   53.8285 O   0  0  0  0  0  0  0  0  0  0  0  0
   38.6669   82.1814   54.6280 N   0  0  0  0  0  0  0  0  0  0  0  0
   37.9704   82.1434   53.4112 C   0  0  0  0  0  0  0  0  0  0  0  0
   38.7068   82.3311   52.2411 C   0  0  0  0  0  0  0  0  0  0  0  0
   38.0902   82.3070   50.9974 C   0  0  0  0  0  0  0  0  0  0  0  0
   36.7403   82.0986   50.8744 C   0  0  0  0  0  0  0  0  0  0  0  0
   36.0260   81.9151   52.0325 C   0  0  0  0  0  0  0  0  0  0  0  0
   34.6050   81.6918   51.9751 N   0  0  0  0  0  0  0  0  0  0  0  0
   33.7201   82.4655   51.1975 C   0  0  0  0  0  0  0  0  0  0  0  0
   34.1739   83.2677   50.3555 O   0  0  0  0  0  0  0  0  0  0  0  0
   32.2998   82.3310   51.3734 C   0  0  0  0  0  0  0  0  0  0  0  0
   31.6801   82.5575   52.5829 C   0  0  0  0  0  0  0  0  0  0  0  0
   30.3239   82.4283   52.7495 C   0  0  0  0  0  0  0  0  0  0  0  0
   29.5533   82.0619   51.6814 C   0  0  0  0  0  0  0  0  0  0  0  0
   30.1414   81.8237   50.4408 C   0  0  0  0  0  0  0  0  0  0  0  0
   31.5184   81.9629   50.3031 C   0  0  0  0  0  0  0  0  0  0  0  0
   32.2077   81.6500   48.7156 Cl  0  0  0  0  0  0  0  0  0  0  0  0
   36.6320   81.9372   53.2813 C   0  0  0  0  0  0  0  0  0  0  0  0
  1  2  1  0
  2  3  1  0
  3  4  1  0
  4  5  2  0
  4  6  1  0
  6  7  1  0
  7  8  2  0
  8  9  1  0
  9 10  2  0
 10 11  1  0
 11 12  1  0
 12 13  1  0
 13 14  2  0
 13 15  1  0
 15 16  2  0
 16 17  1  0
 17 18  2  0
 18 19  1  0
 19 20  2  0
 20 21  1  0
 11 22  2  0
 22  7  1  0
 20 15  1  0
M  END
$$$$
