
     RDKit          3D

 25 28  0  0  0  0  0  0  0  0999 V2000
   14.0043   99.4542   56.6542 C   0  0  0  0  0  0  0  0  0  0  0  0
   12.7347  100.4960   57.4727 S   0  0  0  0  0  0  0  0  0  0  0  0
   11.7797   99.4796   58.6058 C   0  0  0  0  0  0  0  0  0  0  0  0
   10.7655  100.0668   59.3488 C   0  0  0  0  0  0  0  0  0  0  0  0
    9.9845   99.3689   60.2306 C   0  0  0  0  0  0  0  0  0  0  0  0
   10.2247   98.0219   60.3807 C   0  0  0  0  0  0  0  0  0  0  0  0
    9.4050   97.2916   61.2810 N   0  0  0  0  0  0  0  0  0  0  0  0
    9.8960   96.0934   61.8297 C   0  0  0  0  0  0  0  0  0  0  0  0
   11.2155   95.8604   61.7985 N   0  0  0  0  0  0  0  0  0  0  0  0
   11.7253   94.7419   62.2898 C   0  0  0  0  0  0  0  0  0  0  0  0
   13.1706   94.4413   62.2878 C   0  0  0  0  0  0  0  0  0  0  0  0
   14.0629   95.3864   61.8176 C   0  0  0  0  0  0  0  0  0  0  0  0
   15.4342   95.1169   61.8150 C   0  0  0  0  0  0  0  0  0  0  0  0
   15.9179   93.9153   62.2767 C   0  0  0  0  0  0  0  0  0  0  0  0
   15.0384   92.9860   62.7390 C   0  0  0  0  0  0  0  0  0  0  0  0
   13.6624   93.2448   62.7467 C   0  0  0  0  0  0  0  0  0  0  0  0
   10.8695   93.8346   62.8282 N   0  0  0  0  0  0  0  0  0  0  0  0
    9.5488   94.0213   62.8823 C   0  0  0  0  0  0  0  0  0  0  0  0
    8.6893   93.0716   63.4399 C   0  0  0  0  0  0  0  0  0  0  0  0
    7.3311   93.2551   63.4975 C   0  0  0  0  0  0  0  0  0  0  0  0
    6.8138   94.4267   62.9809 C   0  0  0  0  0  0  0  0  0  0  0  0
    7.6618   95.3748   62.4256 C   0  0  0  0  0  0  0  0  0  0  0  0
    9.0185   95.1862   62.3707 C   0  0  0  0  0  0  0  0  0  0  0  0
   11.2358   97.4254   59.6445 C   0  0  0  0  0  0  0  0  0  0  0  0
   12.0231   98.1256   58.7556 C   0  0  0  0  0  0  0  0  0  0  0  0
  1  2  1  0
  2  3  1  0
  3  4  2  0
  4  5  1  0
  5  6  2  0
  6  7  1  0
  7  8  1  0
  8  9  2  0
  9 10  1  0
 10 11  1  0
 11 12  2  0
 12 13  1  0
 13 14  2  0
 14 15  1  0
 15 16  2  0
 10 17  2  0
 17 18  1  0
 18 19  2  0
 19 20  1  0
 20 21  2  0
 21 22  1  0
 22 23  2  0
  6 24  1  0
 24 25  2  0
 25  3  1  0
 23  8  1  0
 16 11  1  0
 23 18  1  0
M  END
$$$$
