
     RDKit          3D

 19 20  0  0  0  0  0  0  0  0999 V2000
   38.4185   81.3414   49.4231 C   0  0  0  0  0  2  0  0  0  0  0  0
   38.3067   80.9533   50.8908 C   0  0  0  0  0  0  0  0  0  0  0  0
   39.6470   81.1232   51.5205 C   0  0  0  0  0  0  0  0  0  0  0  0
   39.5763   81.1519   52.9771 N   0  0  0  0  0  0  0  0  0  0  0  0
   40.9209   81.4061   53.4616 C   0  0  0  0  0  0  0  0  0  0  0  0
   38.7249   82.1951   53.4550 C   0  0  0  0  0  0  0  0  0  0  0  0
   37.3966   82.3136   52.8026 C   0  0  0  0  0  0  0  0  0  0  0  0
   37.2406   81.6546   51.5467 N   0  0  0  0  0  0  0  0  0  0  0  0
   35.9451   81.7181   50.9420 C   0  0  0  0  0  0  0  0  0  0  0  0
   35.7822   81.1134   49.8586 O   0  0  0  0  0  0  0  0  0  0  0  0
   34.7995   82.4400   51.5019 C   0  0  0  0  0  0  0  0  0  0  0  0
   33.3737   82.4895   50.3831 S   0  0  0  0  0  0  0  0  0  0  0  0
   31.9040   82.3443   51.3970 C   0  0  0  0  0  0  0  0  0  0  0  0
   31.9500   82.2922   52.7376 N   0  0  0  0  0  0  0  0  0  0  0  0
   30.8454   82.1812   53.5118 C   0  0  0  0  0  0  0  0  0  0  0  0
   29.6141   82.1180   52.9064 C   0  0  0  0  0  0  0  0  0  0  0  0
   29.4905   82.1663   51.5212 C   0  0  0  0  0  0  0  0  0  0  0  0
   30.6600   82.2800   50.7986 C   0  0  0  0  0  0  0  0  0  0  0  0
   30.5507   82.3433   49.0634 Cl  0  0  0  0  0  0  0  0  0  0  0  0
  1  2  1  0
  2  3  1  0
  3  4  1  0
  4  5  1  0
  4  6  1  0
  6  7  1  0
  7  8  1  0
  8  9  1  0
  9 10  2  0
  9 11  1  0
 11 12  1  0
 12 13  1  0
 13 14  2  0
 14 15  1  0
 15 16  2  0
 16 17  1  0
 17 18  2  0
 18 19  1  0
  8  2  1  0
 18 13  1  0
M  RAD  1   1   3
M  END
$$$$
