
     RDKit          3D

 35 40  0  0  0  0  0  0  0  0999 V2000
   13.9704   93.3673   63.4151 C   0  0  0  0  0  0  0  0  0  0  0  0
   13.4434   94.5525   62.6825 C   0  0  0  0  0  0  0  0  0  0  0  0
   12.1619   95.0141   62.9012 C   0  0  0  0  0  0  0  0  0  0  0  0
   11.6795   96.1123   62.2196 C   0  0  0  0  0  0  0  0  0  0  0  0
   12.4523   96.8008   61.2886 C   0  0  0  0  0  0  0  0  0  0  0  0
   11.8935   97.9531   60.5948 C   0  0  0  0  0  0  0  0  0  0  0  0
   11.0172   98.8745   61.0324 N   0  0  0  0  0  0  0  0  0  0  0  0
   10.7720   99.7397   60.1141 O   0  0  0  0  0  0  0  0  0  0  0  0
   11.4498   99.4524   59.0470 C   0  0  0  0  0  0  0  0  0  0  0  0
   11.4955  100.1094   57.8167 C   0  0  0  0  0  0  0  0  0  0  0  0
   10.7673  101.2078   57.6195 F   0  0  0  0  0  0  0  0  0  0  0  0
   12.3001   99.6061   56.8283 C   0  0  0  0  0  0  0  0  0  0  0  0
   13.0487   98.4507   57.0878 C   0  0  0  0  0  0  0  0  0  0  0  0
   12.9886   97.8217   58.3031 C   0  0  0  0  0  0  0  0  0  0  0  0
   12.1819   98.3180   59.3064 C   0  0  0  0  0  0  0  0  0  0  0  0
   13.9461   97.8731   56.0485 C   0  0  0  0  0  0  0  0  0  0  0  0
   14.4728   99.0822   55.2921 C   0  0  0  0  0  0  0  0  0  0  0  0
   15.5755   98.7430   54.4062 C   0  0  0  0  0  0  0  0  0  0  0  0
   15.8645   97.5787   54.0698 O   0  0  0  0  0  0  0  0  0  0  0  0
   16.3668   99.8124   53.8994 N   0  0  0  0  0  0  0  0  0  0  0  0
   16.4968  101.0141   54.6809 C   0  0  0  0  0  0  0  0  0  0  0  0
   17.1885  101.9545   54.2384 O   0  0  0  0  0  0  0  0  0  0  0  0
   15.8288  101.0831   55.9328 N   0  0  0  0  0  0  0  0  0  0  0  0
   15.0674   99.9711   56.3599 C   0  0  0  0  0  0  0  0  0  0  0  0
   14.9166   99.7663   57.5741 O   0  0  0  0  0  0  0  0  0  0  0  0
   13.4139   99.8677   54.6483 C   0  0  1  0  0  0  0  0  0  0  0  0
   12.6772   99.2985   53.4923 C   0  0  2  0  0  0  0  0  0  0  0  0
   13.4843   98.7556   52.3648 C   0  0  0  0  0  0  0  0  0  0  0  0
   11.9182  100.3673   52.9478 O   0  0  0  0  0  0  0  0  0  0  0  0
   10.8475  100.7259   53.7642 C   0  0  2  0  0  0  0  0  0  0  0  0
   10.1613  101.8885   53.1015 C   0  0  0  0  0  0  0  0  0  0  0  0
   11.4608  101.2468   55.0612 C   0  0  0  0  0  0  0  0  0  0  0  0
   12.3350  100.2596   55.5877 N   0  0  0  0  0  0  0  0  0  0  0  0
   13.7309   96.3290   61.0795 C   0  0  0  0  0  0  0  0  0  0  0  0
   14.2134   95.2311   61.7609 C   0  0  0  0  0  0  0  0  0  0  0  0
  1  2  1  0
  2  3  2  0
  3  4  1  0
  4  5  2  0
  5  6  1  0
  6  7  2  0
  7  8  1  0
  8  9  1  0
  9 10  2  0
 10 11  1  0
 10 12  1  0
 12 13  2  0
 13 14  1  0
 14 15  2  0
 13 16  1  0
 16 17  1  0
 17 18  1  0
 18 19  2  0
 18 20  1  0
 20 21  1  0
 21 22  2  0
 21 23  1  0
 23 24  1  0
 24 25  2  0
 26 17  1  1
 26 27  1  0
 27 28  1  6
 27 29  1  0
 29 30  1  0
 30 31  1  6
 30 32  1  0
 32 33  1  0
  5 34  1  0
 34 35  2  0
 35  2  1  0
 15  6  1  0
 24 17  1  0
 33 26  1  0
 15  9  1  0
 33 12  1  0
M  END
$$$$
