
     RDKit          3D

 30 33  0  0  0  0  0  0  0  0999 V2000
   15.6413  100.2171   50.2883 C   0  0  0  0  0  0  0  0  0  0  0  0
   16.4981  100.6113   51.4987 C   0  0  0  0  0  0  0  0  0  0  0  0
   16.3649   99.5263   52.5472 C   0  0  0  0  0  0  0  0  0  0  0  0
   15.0968   99.7420   53.3761 C   0  0  0  0  0  0  0  0  0  0  0  0
   15.2464  100.9154   54.1801 N   0  0  0  0  0  0  0  0  0  0  0  0
   14.0122  101.3337   54.8041 C   0  0  0  0  0  0  0  0  0  0  0  0
   13.7578  100.4711   55.9704 C   0  0  0  0  0  0  0  0  0  0  0  0
   12.6811   99.6268   55.9939 C   0  0  0  0  0  0  0  0  0  0  0  0
   12.4485   98.8217   57.0884 C   0  0  0  0  0  0  0  0  0  0  0  0
   13.2882   98.8356   58.1975 C   0  0  0  0  0  0  0  0  0  0  0  0
   13.0336   98.0004   59.3148 N   0  0  0  0  0  0  0  0  0  0  0  0
   11.9634   97.0768   59.2360 C   0  0  0  0  0  0  0  0  0  0  0  0
   11.1059   97.2142   58.3289 O   0  0  0  0  0  0  0  0  0  0  0  0
   11.8118   95.9418   60.1907 C   0  0  0  0  0  0  0  0  0  0  0  0
   12.3586   96.2828   61.5500 C   0  0  0  0  0  0  0  0  0  0  0  0
   12.3176   95.0441   62.3357 N   0  0  0  0  0  0  0  0  0  0  0  0
   11.1655   94.4154   62.8642 C   0  0  0  0  0  0  0  0  0  0  0  0
    9.9800   94.8190   62.7455 O   0  0  0  0  0  0  0  0  0  0  0  0
   11.5482   93.2268   63.5700 N   0  0  0  0  0  0  0  0  0  0  0  0
   12.8737   92.9157   63.1372 C   0  0  0  0  0  0  0  0  0  0  0  0
   13.7068   92.2422   64.1974 C   0  0  0  0  0  0  0  0  0  0  0  0
   13.2894   90.7778   64.0080 C   0  0  0  0  0  0  0  0  0  0  0  0
   13.4101   90.6370   62.5040 C   0  0  0  0  0  0  0  0  0  0  0  0
   12.9149   91.9594   61.9671 C   0  0  0  0  0  0  0  0  0  0  0  0
   13.4156   94.2294   62.7237 C   0  0  0  0  0  0  0  0  0  0  0  0
   14.6234   94.5454   62.7230 O   0  0  0  0  0  0  0  0  0  0  0  0
   14.3691   99.6915   58.1595 C   0  0  0  0  0  0  0  0  0  0  0  0
   14.6049  100.5089   57.0478 C   0  0  0  0  0  0  0  0  0  0  0  0
   15.9644  101.9743   53.5422 C   0  0  0  0  0  0  0  0  0  0  0  0
   15.9734  101.8993   52.0479 C   0  0  0  0  0  0  0  0  0  0  0  0
  1  2  1  0
  2  3  1  0
  3  4  1  0
  4  5  1  0
  5  6  1  0
  6  7  1  0
  7  8  2  0
  8  9  1  0
  9 10  2  0
 10 11  1  0
 11 12  1  0
 12 13  2  0
 12 14  1  0
 14 15  1  0
 15 16  1  0
 16 17  1  0
 17 18  2  0
 17 19  1  0
 19 20  1  0
 20 21  1  0
 21 22  1  0
 22 23  1  0
 23 24  1  0
 20 25  1  0
 25 26  2  0
 10 27  1  0
 27 28  2  0
  5 29  1  0
 29 30  1  0
 30  2  1  0
 28  7  1  0
 25 16  1  0
 24 20  1  0
M  END
$$$$
