
     RDKit          3D

 22 24  0  0  0  0  0  0  0  0999 V2000
   11.3775   97.4262   60.7990 C   0  0  0  0  0  0  0  0  0  0  0  0
   12.4255   97.4133   59.8658 O   0  0  0  0  0  0  0  0  0  0  0  0
   12.5231   98.2793   58.7878 C   0  0  0  0  0  0  0  0  0  0  0  0
   11.9343   99.5204   58.8111 C   0  0  0  0  0  0  0  0  0  0  0  0
   12.0222  100.4138   57.7266 C   0  0  0  0  0  0  0  0  0  0  0  0
   11.3638  101.7303   57.8494 C   0  0  0  0  0  0  0  0  0  0  0  0
   12.7295   99.9770   56.6415 C   0  0  0  0  0  0  0  0  0  0  0  0
   12.8641  100.8575   55.4397 C   0  0  0  0  0  0  0  0  0  0  0  0
   14.1052  101.6757   55.4812 C   0  0  0  0  0  0  0  0  0  0  0  0
   15.2891  101.0800   54.8409 C   0  0  0  0  0  0  0  0  0  0  0  0
   16.4244  101.3300   55.3149 O   0  0  0  0  0  0  0  0  0  0  0  0
   15.2206  100.2358   53.7121 N   0  0  0  0  0  0  0  0  0  0  0  0
   13.9104   99.7018   53.4348 C   0  0  0  0  0  0  0  0  0  0  0  0
   12.8179   99.9928   54.2123 C   0  0  0  0  0  0  0  0  0  0  0  0
   11.7494   99.3157   53.6136 C   0  0  0  0  0  0  0  0  0  0  0  0
   12.2622   98.6849   52.5522 N   0  0  0  0  0  0  0  0  0  0  0  0
   13.5321   98.8949   52.4235 N   0  0  0  0  0  0  0  0  0  0  0  0
   14.4255   98.3680   51.3818 C   0  0  0  0  0  0  0  0  0  0  0  0
   13.3262   98.7032   56.6345 C   0  0  0  0  0  0  0  0  0  0  0  0
   13.2379   97.8317   57.6983 C   0  0  0  0  0  0  0  0  0  0  0  0
   13.8330   96.5989   57.6537 O   0  0  0  0  0  0  0  0  0  0  0  0
   14.1048   95.8292   56.5397 C   0  0  0  0  0  0  0  0  0  0  0  0
  1  2  1  0
  2  3  1  0
  3  4  2  0
  4  5  1  0
  5  6  1  0
  5  7  2  0
  7  8  1  0
  8  9  1  0
  9 10  1  0
 10 11  2  0
 10 12  1  0
 12 13  1  0
 13 14  2  0
 14 15  1  0
 15 16  2  0
 16 17  1  0
 17 18  1  0
  7 19  1  0
 19 20  2  0
 20 21  1  0
 21 22  1  0
 20  3  1  0
 14  8  1  0
 17 13  1  0
M  END
$$$$
