
     RDKit          3D

 36 39  0  0  0  0  0  0  0  0999 V2000
   14.8657   90.1141   65.5250 C   0  0  0  0  0  0  0  0  0  0  0  0
   13.9552   91.1079   66.2235 C   0  0  0  0  0  0  0  0  0  0  0  0
   14.7887   91.9735   67.1404 C   0  0  0  0  0  0  0  0  0  0  0  0
   12.9324   90.2864   67.0185 C   0  0  0  0  0  0  0  0  0  0  0  0
   13.2200   91.8687   65.2808 O   0  0  0  0  0  0  0  0  0  0  0  0
   13.8368   92.8803   64.5715 C   0  0  0  0  0  0  0  0  0  0  0  0
   15.0507   93.1349   64.8052 O   0  0  0  0  0  0  0  0  0  0  0  0
   13.1388   93.6298   63.5962 N   0  0  0  0  0  0  0  0  0  0  0  0
   13.8332   94.6850   62.8980 C   0  0  0  0  0  0  0  0  0  0  0  0
   13.2039   94.8757   61.5354 C   0  0  0  0  0  0  0  0  0  0  0  0
   11.8182   95.2294   61.7295 N   0  0  0  0  0  0  0  0  0  0  0  0
   11.2687   96.2772   60.9627 C   0  0  0  0  0  0  0  0  0  0  0  0
   10.0388   96.3005   60.6849 O   0  0  0  0  0  0  0  0  0  0  0  0
   12.1549   97.3577   60.4828 C   0  0  0  0  0  0  0  0  0  0  0  0
   11.3281   98.4301   59.8427 C   0  0  1  0  0  0  0  0  0  0  0  0
   12.0915   99.7327   60.0114 C   0  0  0  0  0  0  0  0  0  0  0  0
   12.1933  100.4788   58.6974 C   0  0  0  0  0  0  0  0  0  0  0  0
   13.0109   99.6371   57.7762 C   0  0  2  0  0  0  0  0  0  0  0  0
   13.1902  100.1764   56.4385 C   0  0  0  0  0  0  0  0  0  0  0  0
   12.4690   99.7390   55.3509 C   0  0  0  0  0  0  0  0  0  0  0  0
   12.6468  100.2554   54.0847 C   0  0  0  0  0  0  0  0  0  0  0  0
   13.5802  101.2553   53.8626 C   0  0  0  0  0  0  0  0  0  0  0  0
   13.7227  101.7615   52.4987 C   0  0  0  0  0  0  0  0  0  0  0  0
   12.7227  101.7407   51.7188 O   0  0  0  0  0  0  0  0  0  0  0  0
   14.9265  102.2829   51.9822 N   0  0  0  0  0  0  0  0  0  0  0  0
   15.2274  102.4196   50.5972 C   0  0  0  0  0  0  0  0  0  0  0  0
   15.8886  103.4695   50.0650 N   0  0  0  0  0  0  0  0  0  0  0  0
   16.0024  103.2881   48.7592 N   0  0  0  0  0  0  0  0  0  0  0  0
   15.4301  102.1433   48.4291 N   0  0  0  0  0  0  0  0  0  0  0  0
   14.9630  101.6248   49.5539 N   0  0  0  0  0  0  0  0  0  0  0  0
   14.2967  101.6939   54.9282 C   0  0  0  0  0  0  0  0  0  0  0  0
   14.1143  101.1676   56.2145 C   0  0  0  0  0  0  0  0  0  0  0  0
   12.4789   98.2319   57.6780 C   0  0  0  0  0  0  0  0  0  0  0  0
   11.1565   98.1480   58.3806 C   0  0  0  0  0  0  0  0  0  0  0  0
   11.0286   94.5182   62.6931 C   0  0  0  0  0  0  0  0  0  0  0  0
   11.7686   93.3506   63.3024 C   0  0  0  0  0  0  0  0  0  0  0  0
  1  2  1  0
  2  3  1  0
  2  4  1  0
  2  5  1  0
  5  6  1  0
  6  7  2  0
  6  8  1  0
  8  9  1  0
  9 10  1  0
 10 11  1  0
 11 12  1  0
 12 13  2  0
 12 14  1  0
 15 14  1  6
 15 16  1  0
 16 17  1  0
 17 18  1  0
 18 19  1  6
 19 20  2  0
 20 21  1  0
 21 22  2  0
 22 23  1  0
 23 24  2  0
 23 25  1  0
 25 26  1  0
 26 27  2  0
 27 28  1  0
 28 29  2  0
 29 30  1  0
 22 31  1  0
 31 32  2  0
 18 33  1  0
 33 34  1  0
 11 35  1  0
 35 36  1  0
 36  8  1  0
 34 15  1  0
 32 19  1  0
 30 26  1  0
M  END
$$$$
