
     RDKit          3D

 33 37  0  0  0  0  0  0  0  0999 V2000
   35.7201   81.0786   51.8035 C   0  0  0  0  0  0  0  0  0  0  0  0
   37.0782   80.4276   51.8229 C   0  0  0  0  0  0  0  0  0  0  0  0
   36.8891   79.0753   52.5318 C   0  0  0  0  0  0  0  0  0  0  0  0
   37.9922   81.2867   52.6288 C   0  0  0  0  0  0  0  0  0  0  0  0
   37.9693   81.1590   54.0283 C   0  0  0  0  0  0  0  0  0  0  0  0
   38.8045   81.9039   54.8212 C   0  0  0  0  0  0  0  0  0  0  0  0
   39.6610   82.7766   54.1946 C   0  0  0  0  0  0  0  0  0  0  0  0
   39.6809   82.8999   52.8244 C   0  0  0  0  0  0  0  0  0  0  0  0
   38.8377   82.1511   51.9903 C   0  0  0  0  0  0  0  0  0  0  0  0
   38.8895   82.3293   50.5431 C   0  0  0  0  0  0  0  0  0  0  0  0
   39.8556   83.1673   50.0719 N   0  0  0  0  0  0  0  0  0  0  0  0
   40.0159   83.4346   48.7772 C   0  0  0  0  0  0  0  0  0  0  0  0
   39.1734   82.8437   47.8606 C   0  0  0  0  0  0  0  0  0  0  0  0
   39.0827   82.9137   46.5005 N   0  0  0  0  0  0  0  0  0  0  0  0
   38.0607   82.1173   46.1453 C   0  0  0  0  0  0  0  0  0  0  0  0
   37.7234   81.9706   44.9304 O   0  0  0  0  0  0  0  0  0  0  0  0
   37.5253   81.5654   47.2322 N   0  0  0  0  0  0  0  0  0  0  0  0
   36.4183   80.6574   47.2755 C   0  0  2  0  0  0  0  0  0  0  0  0
   35.7534   80.4779   45.9440 C   0  0  0  0  0  0  0  0  0  0  0  0
   35.4142   81.1761   48.2371 C   0  0  0  0  0  0  0  0  0  0  0  0
   34.7301   80.2667   49.0122 C   0  0  0  0  0  0  0  0  0  0  0  0
   33.7784   80.6999   49.9300 C   0  0  0  0  0  0  0  0  0  0  0  0
   33.5057   82.0401   50.0783 C   0  0  0  0  0  0  0  0  0  0  0  0
   32.5105   82.4937   51.0374 C   0  0  0  0  0  0  0  0  0  0  0  0
   31.6402   81.7661   51.8027 C   0  0  0  0  0  0  0  0  0  0  0  0
   30.9296   82.6303   52.5237 N   0  0  0  0  0  0  0  0  0  0  0  0
   31.3118   83.8673   52.2481 N   0  0  0  0  0  0  0  0  0  0  0  0
   30.7770   85.0978   52.8299 C   0  0  0  0  0  0  0  0  0  0  0  0
   32.2786   83.8132   51.3411 C   0  0  0  0  0  0  0  0  0  0  0  0
   34.1919   82.9337   49.3025 C   0  0  0  0  0  0  0  0  0  0  0  0
   35.1456   82.5130   48.3814 C   0  0  0  0  0  0  0  0  0  0  0  0
   38.1950   81.9957   48.3310 C   0  0  0  0  0  0  0  0  0  0  0  0
   38.0985   81.7780   49.6479 N   0  0  0  0  0  0  0  0  0  0  0  0
  1  2  1  0
  2  3  1  0
  2  4  1  0
  4  5  2  0
  5  6  1  0
  6  7  2  0
  7  8  1  0
  8  9  2  0
  9 10  1  0
 10 11  2  0
 11 12  1  0
 12 13  2  0
 13 14  1  0
 14 15  1  0
 15 16  2  0
 15 17  1  0
 17 18  1  0
 18 19  1  6
 18 20  1  0
 20 21  2  0
 21 22  1  0
 22 23  2  0
 23 24  1  0
 24 25  1  0
 25 26  2  0
 26 27  1  0
 27 28  1  0
 27 29  1  0
 23 30  1  0
 30 31  2  0
 17 32  1  0
 32 33  2  0
  9  4  1  0
 33 10  1  0
 32 13  1  0
 31 20  1  0
 29 24  2  0
M  END
$$$$
