
     RDKit          3D

 26 28  0  0  0  0  0  0  0  0999 V2000
   14.1660   92.5193   63.1432 C   0  0  0  0  0  0  0  0  0  0  0  0
   13.1372   92.5348   64.1698 N   0  0  0  0  0  0  0  0  0  0  0  0
   12.2186   93.5044   64.1309 C   0  0  0  0  0  0  0  0  0  0  0  0
   12.2539   94.5096   63.1396 N   0  0  0  0  0  0  0  0  0  0  0  0
   13.0966   94.2708   61.9798 C   0  0  0  0  0  0  0  0  0  0  0  0
   13.5105   95.5199   61.2809 C   0  0  0  0  0  0  0  0  0  0  0  0
   12.3488   96.2931   60.9319 N   0  0  0  0  0  0  0  0  0  0  0  0
   12.4055   97.1690   59.7754 C   0  0  0  0  0  0  0  0  0  0  0  0
   13.3850   97.0553   59.0075 O   0  0  0  0  0  0  0  0  0  0  0  0
   11.3984   98.1143   59.5217 N   0  0  0  0  0  0  0  0  0  0  0  0
   11.5346   99.3043   58.7827 C   0  0  0  0  0  0  0  0  0  0  0  0
   10.9779  100.4684   59.3481 C   0  0  0  0  0  0  0  0  0  0  0  0
   11.0424  101.6871   58.7108 C   0  0  0  0  0  0  0  0  0  0  0  0
   11.6698  101.7620   57.4894 C   0  0  0  0  0  0  0  0  0  0  0  0
   12.2299  100.6624   56.8894 C   0  0  0  0  0  0  0  0  0  0  0  0
   12.8488  100.7526   55.6827 F   0  0  0  0  0  0  0  0  0  0  0  0
   12.1468   99.4430   57.5620 C   0  0  0  0  0  0  0  0  0  0  0  0
   11.1496   96.1836   61.7388 C   0  0  0  0  0  0  0  0  0  0  0  0
   11.5121   95.7352   63.1635 C   0  0  0  0  0  0  0  0  0  0  0  0
   11.2367   93.4835   65.1273 C   0  0  0  0  0  0  0  0  0  0  0  0
   11.2232   92.5136   66.0926 C   0  0  0  0  0  0  0  0  0  0  0  0
   10.3435   92.5042   66.9746 O   0  0  0  0  0  0  0  0  0  0  0  0
   12.1651   91.5653   66.0883 N   0  0  0  0  0  0  0  0  0  0  0  0
   12.2200   90.5013   67.0770 C   0  0  0  0  0  0  0  0  0  0  0  0
   13.1188   91.5681   65.1384 C   0  0  0  0  0  0  0  0  0  0  0  0
   14.0167   90.6840   65.1161 O   0  0  0  0  0  0  0  0  0  0  0  0
  1  2  1  0
  2  3  1  0
  3  4  1  0
  4  5  1  0
  5  6  1  0
  6  7  1  0
  7  8  1  0
  8  9  2  0
  8 10  1  0
 10 11  1  0
 11 12  2  0
 12 13  1  0
 13 14  2  0
 14 15  1  0
 15 16  1  0
 15 17  2  0
  7 18  1  0
 18 19  1  0
  3 20  2  0
 20 21  1  0
 21 22  2  0
 21 23  1  0
 23 24  1  0
 23 25  1  0
 25 26  2  0
 25  2  1  0
 19  4  1  0
 17 11  1  0
M  END
$$$$
