
     RDKit          3D

 22 24  0  0  0  0  0  0  0  0999 V2000
   12.5454   48.6776   17.3093 C   0  0  0  0  0  0  0  0  0  0  0  0
   13.4109   49.7770   17.4530 O   0  0  0  0  0  0  0  0  0  0  0  0
   14.7695   49.5720   17.4992 C   0  0  0  0  0  0  0  0  0  0  0  0
   15.2574   48.4923   18.2536 C   0  0  0  0  0  0  0  0  0  0  0  0
   16.6034   48.2178   18.3516 C   0  0  0  0  0  0  0  0  0  0  0  0
   17.4799   49.0455   17.6774 C   0  0  0  0  0  0  0  0  0  0  0  0
   17.0540   50.1075   16.9313 C   0  0  0  0  0  0  0  0  0  0  0  0
   15.6735   50.3548   16.8558 C   0  0  0  0  0  0  0  0  0  0  0  0
   15.2837   51.4852   16.0568 C   0  0  0  0  0  0  0  0  0  0  0  0
   14.2092   52.1403   16.3523 O   0  0  0  0  0  0  0  0  0  0  0  0
   15.9709   51.9840   14.9362 N   0  0  0  0  0  0  0  0  0  0  0  0
   15.6154   53.2670   14.3620 C   0  0  0  0  0  0  0  0  0  0  0  0
   14.3150   53.4079   13.9286 C   0  0  0  0  0  0  0  0  0  0  0  0
   13.9643   54.6319   13.3774 C   0  0  0  0  0  0  0  0  0  0  0  0
   14.8767   55.6734   13.2639 C   0  0  0  0  0  0  0  0  0  0  0  0
   16.1632   55.4596   13.7199 C   0  0  0  0  0  0  0  0  0  0  0  0
   16.5649   54.2503   14.2807 C   0  0  0  0  0  0  0  0  0  0  0  0
   17.1800   56.4058   13.6720 O   0  0  0  0  0  0  0  0  0  0  0  0
   17.0851   57.8052   13.6598 C   0  0  0  0  0  0  0  0  0  0  0  0
   16.1433   58.3639   12.6503 C   0  0  0  0  0  0  0  0  0  0  0  0
   14.6912   58.1339   12.9408 C   0  0  0  0  0  0  0  0  0  0  0  0
   14.2936   56.7980   12.6809 O   0  0  0  0  0  0  0  0  0  0  0  0
  1  2  1  0
  2  3  1  0
  3  4  2  0
  4  5  1  0
  5  6  2  0
  6  7  1  0
  7  8  2  0
  8  9  1  0
  9 10  2  0
  9 11  1  0
 11 12  1  0
 12 13  2  0
 13 14  1  0
 14 15  2  0
 15 16  1  0
 16 17  2  0
 16 18  1  0
 18 19  1  0
 19 20  1  0
 20 21  1  0
 21 22  1  0
  8  3  1  0
 17 12  1  0
 22 15  1  0
M  END
$$$$
