
     RDKit          3D

 27 30  0  0  0  0  0  0  0  0999 V2000
  -10.3238   61.7055   31.8701 C   0  0  0  0  0  0  0  0  0  0  0  0
  -10.1799   60.2419   31.9101 N   0  0  0  0  0  0  0  0  0  0  0  0
   -9.2436   59.4875   31.1482 C   0  0  0  0  0  0  0  0  0  0  0  0
   -8.3574   60.0083   30.2891 C   0  0  0  0  0  0  0  0  0  0  0  0
   -6.9599   59.9568   30.6526 C   0  0  0  0  0  0  0  0  0  0  0  0
   -6.0480   60.1079   29.7056 C   0  0  0  0  0  0  0  0  0  0  0  0
   -4.7311   60.5600   30.1204 C   0  0  0  0  0  0  0  0  0  0  0  0
   -3.5584   59.9354   30.0743 N   0  0  0  0  0  0  0  0  0  0  0  0
   -2.6012   60.7325   30.5654 N   0  0  0  0  0  0  0  0  0  0  0  0
   -3.2165   61.8698   30.9171 C   0  0  0  0  0  0  0  0  0  0  0  0
   -2.6457   63.0765   31.5059 C   0  0  0  0  0  0  0  0  0  0  0  0
   -3.4182   63.9943   32.1813 C   0  0  0  0  0  0  0  0  0  0  0  0
   -2.8700   65.1437   32.7413 C   0  0  0  0  0  0  0  0  0  0  0  0
   -1.5156   65.3900   32.6280 C   0  0  0  0  0  0  0  0  0  0  0  0
   -0.7984   66.8393   33.3292 Cl  0  0  0  0  0  0  0  0  0  0  0  0
   -0.7536   64.4596   31.9473 C   0  0  0  0  0  0  0  0  0  0  0  0
   -1.2785   63.3213   31.3893 C   0  0  0  0  0  0  0  0  0  0  0  0
   -4.4913   61.7389   30.6397 O   0  0  0  0  0  0  0  0  0  0  0  0
   -9.4319   58.0782   31.4757 C   0  0  0  0  0  0  0  0  0  0  0  0
   -9.8139   57.2244   30.2940 C   0  0  0  0  0  0  0  0  0  0  0  0
   -8.1617   57.5849   32.1244 C   0  0  0  0  0  0  0  0  0  0  0  0
  -10.5205   58.0850   32.4705 C   0  0  0  0  0  0  0  0  0  0  0  0
  -11.1306   57.0488   33.1483 C   0  0  0  0  0  0  0  0  0  0  0  0
  -12.1446   57.2799   34.0453 C   0  0  0  0  0  0  0  0  0  0  0  0
  -12.5466   58.5750   34.2594 C   0  0  0  0  0  0  0  0  0  0  0  0
  -11.9738   59.6597   33.6098 C   0  0  0  0  0  0  0  0  0  0  0  0
  -10.9568   59.3682   32.7174 C   0  0  0  0  0  0  0  0  0  0  0  0
  1  2  1  0
  2  3  1  0
  3  4  2  0
  4  5  1  0
  5  6  2  0
  6  7  1  0
  7  8  2  0
  8  9  1  0
  9 10  2  0
 10 11  1  0
 11 12  2  0
 12 13  1  0
 13 14  2  0
 14 15  1  0
 14 16  1  0
 16 17  2  0
 10 18  1  0
  3 19  1  0
 19 20  1  0
 19 21  1  0
 19 22  1  0
 22 23  2  0
 23 24  1  0
 24 25  2  0
 25 26  1  0
 26 27  2  0
 27  2  1  0
 18  7  1  0
 27 22  1  0
 17 11  1  0
M  END
$$$$
