
     RDKit          3D

 18 20  0  0  0  0  0  0  0  0999 V2000
   12.3707   98.8978   56.6906 C   0  0  0  0  0  0  0  0  0  0  0  0
   11.8530   98.7210   58.1178 C   0  0  0  0  0  0  0  0  0  0  0  0
   11.5592   97.9531   58.9152 N   0  0  0  0  0  0  0  0  0  0  0  0
   11.1174   98.0973   60.1418 C   0  0  0  0  0  0  0  0  0  0  0  0
   10.7888   96.9350   61.0657 C   0  0  0  0  0  0  0  0  0  0  0  0
   12.0007   96.3415   61.5977 C   0  0  0  0  0  0  0  0  0  0  0  0
   13.1988   96.8955   61.2791 N   0  0  0  0  0  0  0  0  0  0  0  0
   14.3453   96.3893   61.6930 N   0  0  0  0  0  0  0  0  0  0  0  0
   14.3881   95.2826   62.4624 C   0  0  0  0  0  0  0  0  0  0  0  0
   15.5158   94.8514   62.8227 O   0  0  0  0  0  0  0  0  0  0  0  0
   13.2222   94.6607   62.8305 C   0  0  0  0  0  0  0  0  0  0  0  0
   12.0304   95.2340   62.3689 C   0  0  0  0  0  0  0  0  0  0  0  0
   10.8061   94.5567   62.8233 C   0  0  0  0  0  0  0  0  0  0  0  0
   10.9826   94.2880   64.3064 C   0  0  0  0  0  0  0  0  0  0  0  0
   12.0676   93.2973   64.5585 C   0  0  0  0  0  0  0  0  0  0  0  0
   13.2625   93.4397   63.6689 C   0  0  0  0  0  0  0  0  0  0  0  0
   10.9917   99.4507   60.5204 C   0  0  0  0  0  0  0  0  0  0  0  0
   11.5241  100.3223   59.0639 S   0  0  0  0  0  0  0  0  0  0  0  0
  1  2  1  0
  2  3  2  0
  3  4  1  0
  4  5  1  0
  5  6  1  0
  6  7  2  0
  7  8  1  0
  8  9  1  0
  9 10  2  0
  9 11  1  0
 11 12  2  0
 12 13  1  0
 13 14  1  0
 14 15  1  0
 15 16  1  0
  4 17  2  0
 17 18  1  0
 18  2  1  0
 12  6  1  0
 16 11  1  0
M  END
$$$$
