
     RDKit          3D

 25 27  0  0  0  0  0  0  0  0999 V2000
   20.3391   49.6014   17.7758 C   0  0  0  0  0  0  0  0  0  0  0  0
   19.2885   49.1332   16.9588 O   0  0  0  0  0  0  0  0  0  0  0  0
   18.1085   49.0254   17.7369 C   0  0  0  0  0  0  0  0  0  0  0  0
   16.9181   48.9329   16.8210 C   0  0  0  0  0  0  0  0  0  0  0  0
   15.6383   49.4495   17.3764 C   0  0  0  0  0  0  0  0  0  0  0  0
   15.5407   50.8976   17.0464 C   0  0  0  0  0  0  0  0  0  0  0  0
   15.6558   51.7557   18.0135 O   0  0  0  0  0  0  0  0  0  0  0  0
   15.3276   51.4414   15.7503 N   0  0  0  0  0  0  0  0  0  0  0  0
   15.3600   50.8798   14.4450 C   0  0  0  0  0  0  0  0  0  0  0  0
   15.7436   52.0665   13.5385 C   0  0  0  0  0  0  0  0  0  0  0  0
   14.7832   53.1078   14.1324 C   0  0  0  0  0  0  0  0  0  0  0  0
   15.2131   54.4360   13.6608 C   0  0  0  0  0  0  0  0  0  0  0  0
   16.4304   54.9490   13.8936 N   0  0  0  0  0  0  0  0  0  0  0  0
   16.7798   56.1662   13.4438 C   0  0  0  0  0  0  0  0  0  0  0  0
   18.1319   56.7519   13.6947 C   0  0  0  0  0  0  0  0  0  0  0  0
   15.8666   56.9113   12.7235 C   0  0  0  0  0  0  0  0  0  0  0  0
   14.6121   56.3927   12.4788 C   0  0  0  0  0  0  0  0  0  0  0  0
   13.7550   57.0481   11.8241 O   0  0  0  0  0  0  0  0  0  0  0  0
   14.3384   55.1717   12.9603 N   0  0  0  0  0  0  0  0  0  0  0  0
   14.9970   52.8811   15.5808 C   0  0  0  0  0  0  0  0  0  0  0  0
   14.4114   48.7567   16.8873 C   0  0  0  0  0  0  0  0  0  0  0  0
   13.1896   48.9277   17.7405 C   0  0  0  0  0  0  0  0  0  0  0  0
   13.4771   48.7642   19.2159 C   0  0  0  0  0  0  0  0  0  0  0  0
   14.9081   48.2313   19.3675 C   0  0  0  0  0  0  0  0  0  0  0  0
   15.7671   49.3567   18.9001 C   0  0  0  0  0  0  0  0  0  0  0  0
  1  2  1  0
  2  3  1  0
  3  4  1  0
  4  5  1  0
  5  6  1  0
  6  7  2  0
  6  8  1  0
  8  9  1  0
  9 10  1  0
 10 11  1  0
 11 12  1  0
 12 13  2  0
 13 14  1  0
 14 15  1  0
 14 16  2  0
 16 17  1  0
 17 18  2  0
 17 19  1  0
 11 20  1  0
  5 21  1  0
 21 22  1  0
 22 23  1  0
 23 24  1  0
 24 25  1  0
 25  5  1  0
 20  8  1  0
 19 12  1  0
M  END
$$$$
