
     RDKit          3D

 29 33  0  0  0  0  0  0  0  0999 V2000
   15.0560   69.0316   14.8192 C   0  0  0  0  0  0  0  0  0  0  0  0
   14.4043   67.7642   14.7547 N   0  0  0  0  0  0  0  0  0  0  0  0
   13.0605   67.7698   15.2981 C   0  0  0  0  0  0  0  0  0  0  0  0
   12.2739   66.5834   14.7782 C   0  0  0  0  0  0  0  0  0  0  0  0
   13.1670   65.4281   14.8538 N   0  0  0  0  0  0  0  0  0  0  0  0
   12.8828   64.2771   14.0787 C   0  0  0  0  0  0  0  0  0  0  0  0
   12.1665   64.3117   12.9142 C   0  0  0  0  0  0  0  0  0  0  0  0
   11.9129   63.1614   12.1761 C   0  0  0  0  0  0  0  0  0  0  0  0
   12.3757   61.9358   12.5914 C   0  0  0  0  0  0  0  0  0  0  0  0
   12.0955   60.7211   11.8019 C   0  0  0  0  0  0  0  0  0  0  0  0
   11.1872   60.5357   10.8287 N   0  0  0  0  0  0  0  0  0  0  0  0
   11.2678   59.2846   10.3676 N   0  0  0  0  0  0  0  0  0  0  0  0
   12.2274   58.6058   11.0178 C   0  0  0  0  0  0  0  0  0  0  0  0
   12.6835   57.3484   10.9202 N   0  0  0  0  0  0  0  0  0  0  0  0
   13.6841   56.9581   11.7315 C   0  0  0  0  0  0  0  0  0  0  0  0
   14.2460   57.8064   12.6495 C   0  0  0  0  0  0  0  0  0  0  0  0
   15.3276   57.4186   13.5421 C   0  0  0  0  0  0  0  0  0  0  0  0
   15.2331   57.5497   14.8953 C   0  0  0  0  0  0  0  0  0  0  0  0
   16.2452   57.1860   15.7085 N   0  0  0  0  0  0  0  0  0  0  0  0
   17.3763   56.6840   15.2089 C   0  0  0  0  0  0  0  0  0  0  0  0
   17.5217   56.5324   13.8619 C   0  0  0  0  0  0  0  0  0  0  0  0
   18.6846   56.0129   13.2990 O   0  0  0  0  0  0  0  0  0  0  0  0
   16.5090   56.8949   13.0292 C   0  0  0  0  0  0  0  0  0  0  0  0
   13.7687   59.0971   12.7408 C   0  0  0  0  0  0  0  0  0  0  0  0
   12.7568   59.5219   11.9337 C   0  0  0  0  0  0  0  0  0  0  0  0
   13.0967   61.8798   13.7587 C   0  0  0  0  0  0  0  0  0  0  0  0
   13.3384   63.0209   14.4745 C   0  0  0  0  0  0  0  0  0  0  0  0
   14.2844   65.5653   15.7399 C   0  0  0  0  0  0  0  0  0  0  0  0
   15.1845   66.6539   15.1911 C   0  0  0  0  0  0  0  0  0  0  0  0
  1  2  1  0
  2  3  1  0
  3  4  1  0
  4  5  1  0
  5  6  1  0
  6  7  2  0
  7  8  1  0
  8  9  2  0
  9 10  1  0
 10 11  2  0
 11 12  1  0
 12 13  1  0
 13 14  2  0
 14 15  1  0
 15 16  2  0
 16 17  1  0
 17 18  2  0
 18 19  1  0
 19 20  2  0
 20 21  1  0
 21 22  1  0
 21 23  2  0
 16 24  1  0
 24 25  2  0
  9 26  1  0
 26 27  2  0
  5 28  1  0
 28 29  1  0
 29  2  1  0
 27  6  1  0
 25 10  1  0
 25 13  1  0
 23 17  1  0
M  END
$$$$
