
     RDKit          3D

 35 39  0  0  0  0  0  0  0  0999 V2000
   14.3443   91.0063   65.6313 C   0  0  0  0  0  0  0  0  0  0  0  0
   13.0204   90.9819   65.1143 O   0  0  0  0  0  0  0  0  0  0  0  0
   12.5437   92.1362   64.5035 C   0  0  0  0  0  0  0  0  0  0  0  0
   13.3633   93.0883   63.9368 C   0  0  0  0  0  0  0  0  0  0  0  0
   12.8970   94.2247   63.3353 C   0  0  0  0  0  0  0  0  0  0  0  0
   11.5420   94.4490   63.2821 C   0  0  0  0  0  0  0  0  0  0  0  0
   10.6621   93.5131   63.8429 C   0  0  0  0  0  0  0  0  0  0  0  0
   11.1797   92.3891   64.4349 C   0  0  0  0  0  0  0  0  0  0  0  0
   10.3428   91.4495   64.9955 O   0  0  0  0  0  0  0  0  0  0  0  0
    9.2949   91.8430   65.8461 C   0  0  0  0  0  0  0  0  0  0  0  0
   11.0073   95.6755   62.6360 C   0  0  0  0  0  0  0  0  0  0  0  0
   11.8850   96.2843   61.7241 N   0  0  0  0  0  0  0  0  0  0  0  0
   11.4947   97.4567   61.0933 C   0  0  0  0  0  0  0  0  0  0  0  0
   10.7910   97.3662   59.8001 C   0  0  0  0  0  0  0  0  0  0  0  0
   11.5479   98.0655   58.7365 C   0  0  0  0  0  0  0  0  0  0  0  0
   12.0032   99.3549   58.8266 C   0  0  0  0  0  0  0  0  0  0  0  0
   12.7012   99.9914   57.8399 C   0  0  0  0  0  0  0  0  0  0  0  0
   12.9690   99.2757   56.6556 C   0  0  0  0  0  0  0  0  0  0  0  0
   13.6943   99.9719   55.6597 N   0  0  0  0  0  0  0  0  0  0  0  0
   13.5459   99.8579   54.2709 C   0  0  0  0  0  0  0  0  0  0  0  0
   12.6425   99.1447   53.7816 O   0  0  0  0  0  0  0  0  0  0  0  0
   14.4223  100.5535   53.3482 C   0  0  0  0  0  0  0  0  0  0  0  0
   15.5524  101.2405   53.8176 C   0  0  0  0  0  0  0  0  0  0  0  0
   16.3873  101.9020   52.9487 C   0  0  0  0  0  0  0  0  0  0  0  0
   16.1483  101.9161   51.5915 C   0  0  0  0  0  0  0  0  0  0  0  0
   15.0565  101.2573   51.0993 C   0  0  0  0  0  0  0  0  0  0  0  0
   14.2258  100.5947   51.9981 C   0  0  0  0  0  0  0  0  0  0  0  0
   14.7947  101.2587   49.7229 O   0  0  0  0  0  0  0  0  0  0  0  0
   15.9225  101.5018   48.8688 C   0  0  0  0  0  0  0  0  0  0  0  0
   16.5577  102.7908   49.3661 C   0  0  0  0  0  0  0  0  0  0  0  0
   16.9849  102.5814   50.7036 O   0  0  0  0  0  0  0  0  0  0  0  0
   12.5313   97.9879   56.5284 C   0  0  0  0  0  0  0  0  0  0  0  0
   11.8309   97.4032   57.5639 C   0  0  0  0  0  0  0  0  0  0  0  0
   13.1314   95.7006   61.4652 C   0  0  0  0  0  0  0  0  0  0  0  0
   13.8307   95.2395   62.7262 C   0  0  0  0  0  0  0  0  0  0  0  0
  1  2  1  0
  2  3  1  0
  3  4  2  0
  4  5  1  0
  5  6  2  0
  6  7  1  0
  7  8  2  0
  8  9  1  0
  9 10  1  0
  6 11  1  0
 11 12  1  0
 12 13  1  0
 13 14  1  0
 14 15  1  0
 15 16  2  0
 16 17  1  0
 17 18  2  0
 18 19  1  0
 19 20  1  0
 20 21  2  0
 20 22  1  0
 22 23  2  0
 23 24  1  0
 24 25  2  0
 25 26  1  0
 26 27  2  0
 26 28  1  0
 28 29  1  0
 29 30  1  0
 30 31  1  0
 18 32  1  0
 32 33  2  0
 12 34  1  0
 34 35  1  0
  8  3  1  0
 33 15  1  0
 35  5  1  0
 27 22  1  0
 31 25  1  0
M  END
$$$$
