
     RDKit          3D

 33 37  0  0  0  0  0  0  0  0999 V2000
   20.1163   44.9128   20.6883 C   0  0  0  0  0  0  0  0  0  0  0  0
   19.9767   46.0105   21.6532 C   0  0  2  0  0  0  0  0  0  0  0  0
   20.0893   45.3342   23.0336 C   0  0  0  0  0  0  0  0  0  0  0  0
   19.8836   46.2187   24.1088 N   0  0  0  0  0  0  0  0  0  0  0  0
   19.9067   47.5867   23.8062 C   0  0  0  0  0  0  0  0  0  0  0  0
   19.1153   48.0318   22.6237 C   0  0  1  0  0  0  0  0  0  0  0  0
   19.8357   49.1763   22.0091 C   0  0  0  0  0  0  0  0  0  0  0  0
   18.8083   46.8810   21.6486 C   0  0  0  0  0  0  0  0  0  0  0  0
   17.6231   46.1617   22.3384 C   0  0  0  0  0  0  0  0  0  0  0  0
   16.2773   46.7278   21.8637 C   0  0  0  0  0  0  0  0  0  0  0  0
   16.0217   46.5559   20.3692 C   0  0  2  0  0  0  0  0  0  0  0  0
   15.2343   45.2657   20.2787 C   0  0  0  0  0  0  0  0  0  0  0  0
   17.3830   46.2047   19.8533 C   0  0  0  0  0  0  0  0  0  0  0  0
   18.2133   47.3446   20.4073 C   0  0  2  0  0  0  0  0  0  0  0  0
   18.8124   47.9313   19.2336 C   0  0  0  0  0  0  0  0  0  0  0  0
   17.6395   48.2673   18.3060 C   0  0  1  0  0  0  0  0  0  0  0  0
   17.6605   47.4712   17.1438 O   0  0  0  0  0  0  0  0  0  0  0  0
   16.3394   48.6232   18.8596 C   0  0  1  0  0  0  0  0  0  0  0  0
   15.5362   49.3581   17.7755 C   0  0  1  0  0  0  0  0  0  0  0  0
   14.6855   50.4190   18.3965 C   0  0  0  0  0  0  0  0  0  0  0  0
   16.4456   50.1449   16.8282 C   0  0  0  0  0  0  0  0  0  0  0  0
   15.6107   50.9171   15.8136 C   0  0  0  0  0  0  0  0  0  0  0  0
   14.3185   50.3742   15.4069 C   0  0  2  0  0  0  0  0  0  0  0  0
   13.2950   51.3255   15.6310 F   0  0  0  0  0  0  0  0  0  0  0  0
   13.9030   49.0320   15.8799 C   0  0  1  0  0  0  0  0  0  0  0  0
   12.4516   49.1165   16.3298 C   0  0  0  0  0  0  0  0  0  0  0  0
   13.8117   48.0525   14.6762 C   0  0  0  0  0  0  0  0  0  0  0  0
   13.4937   46.7834   15.1111 O   0  0  0  0  0  0  0  0  0  0  0  0
   14.8494   48.4049   16.8399 C   0  0  2  0  0  0  0  0  0  0  0  0
   14.3766   47.1465   17.4707 C   0  0  0  0  0  0  0  0  0  0  0  0
   14.2064   47.2809   18.9385 C   0  0  0  0  0  0  0  0  0  0  0  0
   15.4648   47.7453   19.6679 C   0  0  1  0  0  0  0  0  0  0  0  0
   14.8286   48.5269   20.8532 C   0  0  0  0  0  0  0  0  0  0  0  0
  2  1  1  6
  2  3  1  0
  3  4  1  0
  4  5  1  0
  5  6  1  0
  6  7  1  6
  6  8  1  0
  8  9  1  0
  9 10  1  0
 10 11  1  0
 11 12  1  1
 11 13  1  0
 13 14  1  0
 14 15  1  6
 15 16  1  0
 16 17  1  6
 18 16  1  6
 18 19  1  0
 19 20  1  1
 19 21  1  0
 21 22  1  0
 22 23  1  0
 23 24  1  1
 23 25  1  0
 25 26  1  1
 25 27  1  0
 27 28  1  0
 25 29  1  0
 29 30  1  1
 30 31  1  0
 31 32  1  0
 32 33  1  1
  8  2  1  0
 32 11  1  0
 14  8  1  0
 32 18  1  0
 29 19  1  0
M  END
$$$$
