
     RDKit          3D

 28 31  0  0  0  0  0  0  0  0999 V2000
   10.1766  102.6167   55.6815 C   0  0  0  0  0  0  0  0  0  0  0  0
   11.0728  101.5773   56.2915 C   0  0  0  0  0  0  0  0  0  0  0  0
   10.4172  100.7326   57.2041 O   0  0  0  0  0  0  0  0  0  0  0  0
   11.0970   99.8405   57.9690 C   0  0  0  0  0  0  0  0  0  0  0  0
   12.4083   99.5573   57.6538 C   0  0  0  0  0  0  0  0  0  0  0  0
   13.1567   98.6495   58.4019 C   0  0  0  0  0  0  0  0  0  0  0  0
   12.6347   97.9876   59.4908 C   0  0  0  0  0  0  0  0  0  0  0  0
   13.3155   97.0608   60.2953 N   0  0  0  0  0  0  0  0  0  0  0  0
   12.7399   96.0999   61.1626 C   0  0  0  0  0  0  0  0  0  0  0  0
   11.4664   95.9168   61.4146 N   0  0  0  0  0  0  0  0  0  0  0  0
   10.9365   95.0125   62.2315 C   0  0  0  0  0  0  0  0  0  0  0  0
    9.5347   94.8974   62.4336 N   0  0  0  0  0  0  0  0  0  0  0  0
    8.9844   93.7140   63.0649 C   0  0  0  0  0  0  0  0  0  0  0  0
    7.6655   94.0107   63.7158 C   0  0  0  0  0  0  0  0  0  0  0  0
    6.7635   94.6814   62.9352 O   0  0  0  0  0  0  0  0  0  0  0  0
    7.2692   95.2645   61.8025 C   0  0  0  0  0  0  0  0  0  0  0  0
    8.6091   95.9313   62.0267 C   0  0  0  0  0  0  0  0  0  0  0  0
   11.8274   94.1746   62.8857 C   0  0  0  0  0  0  0  0  0  0  0  0
   13.1993   94.3145   62.6636 C   0  0  0  0  0  0  0  0  0  0  0  0
   14.0869   93.4424   63.3470 N   0  0  0  0  0  0  0  0  0  0  0  0
   15.5034   93.3747   63.0681 C   0  0  0  0  0  0  0  0  0  0  0  0
   16.1496   92.6815   64.2699 C   0  0  0  0  0  0  0  0  0  0  0  0
   15.6837   91.3989   64.4348 O   0  0  0  0  0  0  0  0  0  0  0  0
   14.3196   91.2751   64.4690 C   0  0  0  0  0  0  0  0  0  0  0  0
   13.5694   92.5692   64.3781 C   0  0  0  0  0  0  0  0  0  0  0  0
   13.6024   95.2625   61.8185 N   0  0  0  0  0  0  0  0  0  0  0  0
   11.3008   98.3049   59.7747 C   0  0  0  0  0  0  0  0  0  0  0  0
   10.5559   99.1973   59.0437 C   0  0  0  0  0  0  0  0  0  0  0  0
  1  2  1  0
  2  3  1  0
  3  4  1  0
  4  5  2  0
  5  6  1  0
  6  7  2  0
  7  8  1  0
  8  9  1  0
  9 10  2  0
 10 11  1  0
 11 12  1  0
 12 13  1  0
 13 14  1  0
 14 15  1  0
 15 16  1  0
 16 17  1  0
 11 18  2  0
 18 19  1  0
 19 20  1  0
 20 21  1  0
 21 22  1  0
 22 23  1  0
 23 24  1  0
 24 25  1  0
 19 26  2  0
  7 27  1  0
 27 28  2  0
 28  4  1  0
 26  9  1  0
 17 12  1  0
 25 20  1  0
M  END
$$$$
