
     RDKit          3D

 29 29  0  0  0  0  0  0  0  0999 V2000
   17.7504   47.3497   20.9626 C   0  0  0  0  0  0  0  0  0  0  0  0
   17.6598   47.0765   19.5785 O   0  0  0  0  0  0  0  0  0  0  0  0
   17.5087   48.0814   18.6532 N   0  0  0  0  0  0  0  0  0  0  0  0
   16.3816   48.6682   18.4531 C   0  0  0  0  0  0  0  0  0  0  0  0
   15.2596   48.2749   19.2021 N   0  0  0  0  0  0  0  0  0  0  0  0
   16.3046   49.7292   17.4490 C   0  0  0  0  0  0  0  0  0  0  0  0
   15.4273   50.7738   17.5483 C   0  0  0  0  0  0  0  0  0  0  0  0
   15.3869   51.7542   16.5789 C   0  0  0  0  0  0  0  0  0  0  0  0
   16.2181   51.7348   15.4713 C   0  0  0  0  0  0  0  0  0  0  0  0
   16.1495   52.7879   14.4643 C   0  0  0  0  0  0  0  0  0  0  0  0
   16.9715   52.7974   13.3389 C   0  0  0  0  0  0  0  0  0  0  0  0
   16.6032   53.9328   12.6526 C   0  0  0  0  0  0  0  0  0  0  0  0
   15.5997   54.5627   13.3562 C   0  0  0  0  0  0  0  0  0  0  0  0
   14.9350   55.8002   12.9655 C   0  0  0  0  0  0  0  0  0  0  0  0
   13.9369   56.3643   13.7304 C   0  0  0  0  0  0  0  0  0  0  0  0
   13.3057   57.5442   13.3544 C   0  0  0  0  0  0  0  0  0  0  0  0
   13.6758   58.1807   12.1875 C   0  0  0  0  0  0  0  0  0  0  0  0
   13.0401   59.4217   11.7538 C   0  0  0  0  0  0  0  0  0  0  0  0
   12.9410   59.7055   10.3564 N   0  0  0  0  0  0  0  0  0  0  0  0
   12.5869   60.2248   12.6457 N   0  0  0  0  0  0  0  0  0  0  0  0
   11.9874   61.3969   12.2127 O   0  0  0  0  0  0  0  0  0  0  0  0
   10.9936   61.3545   11.1828 C   0  0  0  0  0  0  0  0  0  0  0  0
   14.6790   57.5893   11.4441 C   0  0  0  0  0  0  0  0  0  0  0  0
   15.2777   56.4387   11.8337 N   0  0  0  0  0  0  0  0  0  0  0  0
   15.3815   53.8312   14.4166 O   0  0  0  0  0  0  0  0  0  0  0  0
   17.0974   50.6781   15.3820 C   0  0  0  0  0  0  0  0  0  0  0  0
   17.1430   49.6921   16.3502 C   0  0  0  0  0  0  0  0  0  0  0  0
   15.3498   53.3094   15.0947 Cl  0  0  0  0  0  0  0  0  0  0  0  0
   15.3486   53.3119   15.0930 Cl  0  0  0  0  0  0  0  0  0  0  0  0
  1  2  1  0
  2  3  1  0
  3  4  2  0
  4  5  1  0
  4  6  1  0
  6  7  2  0
  7  8  1  0
  8  9  2  0
  9 10  1  0
 10 11  2  0
 11 12  1  0
 12 13  2  0
 13 14  1  0
 14 15  2  0
 15 16  1  0
 16 17  2  0
 17 18  1  0
 18 19  1  0
 18 20  2  0
 20 21  1  0
 21 22  1  0
 17 23  1  0
 23 24  2  0
 13 25  1  0
  9 26  1  0
 26 27  2  0
 27  6  1  0
 25 10  1  0
 24 14  1  0
M  END
$$$$
