
     RDKit          3D

 24 27  0  0  0  0  0  0  0  0999 V2000
   13.9145   50.8890   18.7452 C   0  0  0  0  0  0  0  0  0  0  0  0
   13.6006   49.4722   18.3682 C   0  0  0  0  0  0  0  0  0  0  0  0
   12.3706   48.9594   18.1849 N   0  0  0  0  0  0  0  0  0  0  0  0
   12.4659   47.6584   17.8551 C   0  0  0  0  0  0  0  0  0  0  0  0
   13.8054   47.3359   17.8287 C   0  0  0  0  0  0  0  0  0  0  0  0
   14.4660   48.4559   18.1438 N   0  0  0  0  0  0  0  0  0  0  0  0
   15.8663   48.6178   18.2443 C   0  0  0  0  0  0  0  0  0  0  0  0
   16.5595   48.2807   19.3844 C   0  0  0  0  0  0  0  0  0  0  0  0
   17.9264   48.4460   19.4636 C   0  0  0  0  0  0  0  0  0  0  0  0
   18.7986   48.0153   20.9153 Cl  0  0  0  0  0  0  0  0  0  0  0  0
   18.6386   48.9521   18.4075 C   0  0  0  0  0  0  0  0  0  0  0  0
   17.9786   49.3007   17.2499 C   0  0  0  0  0  0  0  0  0  0  0  0
   16.5944   49.1249   17.1916 C   0  0  0  0  0  0  0  0  0  0  0  0
   15.9762   49.5094   15.9555 C   0  0  0  0  0  0  0  0  0  0  0  0
   15.2629   48.6956   15.3370 O   0  0  0  0  0  0  0  0  0  0  0  0
   16.1736   50.8035   15.4399 N   0  0  0  0  0  0  0  0  0  0  0  0
   15.7175   51.1150   14.1080 C   0  0  0  0  0  0  0  0  0  0  0  0
   16.4324   52.3793   13.6778 C   0  0  0  0  0  0  0  0  0  0  0  0
   16.0005   53.4208   14.5846 N   0  0  0  0  0  0  0  0  0  0  0  0
   16.4684   54.6803   14.0909 C   0  0  0  0  0  0  0  0  0  0  0  0
   16.6665   55.8347   15.0065 C   0  0  0  0  0  0  0  0  0  0  0  0
   15.4304   55.8137   14.1565 C   0  0  0  0  0  0  0  0  0  0  0  0
   16.4262   53.2035   15.9337 C   0  0  0  0  0  0  0  0  0  0  0  0
   16.8240   51.7951   16.2415 C   0  0  0  0  0  0  0  0  0  0  0  0
  1  2  1  0
  2  3  2  0
  3  4  1  0
  4  5  2  0
  5  6  1  0
  6  7  1  0
  7  8  2  0
  8  9  1  0
  9 10  1  0
  9 11  2  0
 11 12  1  0
 12 13  2  0
 13 14  1  0
 14 15  2  0
 14 16  1  0
 16 17  1  0
 17 18  1  0
 18 19  1  0
 19 20  1  0
 20 21  1  0
 21 22  1  0
 19 23  1  0
 23 24  1  0
  6  2  1  0
 13  7  1  0
 24 16  1  0
 22 20  1  0
M  END
$$$$
