
     RDKit          3D

 26 29  0  0  0  0  0  0  0  0999 V2000
   15.0721  102.0875   54.7799 C   0  0  0  0  0  0  0  0  0  0  0  0
   14.2771  100.9780   54.6057 O   0  0  0  0  0  0  0  0  0  0  0  0
   12.9508  101.3830   54.4428 C   0  0  0  0  0  0  0  0  0  0  0  0
   12.2163  101.4017   55.7699 C   0  0  0  0  0  0  0  0  0  0  0  0
   11.3151  100.1711   55.8084 C   0  0  0  0  0  0  0  0  0  0  0  0
   11.7921   99.2812   56.8786 N   0  0  0  0  0  0  0  0  0  0  0  0
   11.2013   99.3391   58.1594 C   0  0  0  0  0  0  0  0  0  0  0  0
   10.3799  100.2992   58.3680 O   0  0  0  0  0  0  0  0  0  0  0  0
   11.4624   98.3942   59.2371 C   0  0  0  0  0  0  0  0  0  0  0  0
   10.5887   98.2391   60.2835 C   0  0  0  0  0  0  0  0  0  0  0  0
   10.8714   97.3216   61.3022 C   0  0  0  0  0  0  0  0  0  0  0  0
   12.0120   96.5508   61.3012 C   0  0  0  0  0  0  0  0  0  0  0  0
   12.3464   95.6066   62.3082 N   0  0  0  0  0  0  0  0  0  0  0  0
   13.3816   95.7841   63.2656 C   0  0  0  0  0  0  0  0  0  0  0  0
   14.0412   96.8397   63.4199 O   0  0  0  0  0  0  0  0  0  0  0  0
   13.5562   94.5564   64.0349 C   0  0  0  0  0  0  0  0  0  0  0  0
   14.7322   93.7249   63.5998 C   0  0  0  0  0  0  0  0  0  0  0  0
   14.8933   92.6374   64.6020 C   0  0  0  0  0  0  0  0  0  0  0  0
   13.7821   91.8836   64.4918 C   0  0  0  0  0  0  0  0  0  0  0  0
   12.9455   92.3951   63.3504 C   0  0  0  0  0  0  0  0  0  0  0  0
   14.0891   92.9164   62.4575 C   0  0  0  0  0  0  0  0  0  0  0  0
   12.3253   93.6907   63.7424 C   0  0  0  0  0  0  0  0  0  0  0  0
   11.7320   94.3259   62.5590 C   0  0  0  0  0  0  0  0  0  0  0  0
   10.8236   93.8774   61.8292 O   0  0  0  0  0  0  0  0  0  0  0  0
   12.8809   96.7167   60.2442 C   0  0  0  0  0  0  0  0  0  0  0  0
   12.6103   97.6199   59.2342 C   0  0  0  0  0  0  0  0  0  0  0  0
  1  2  1  0
  2  3  1  0
  3  4  1  0
  4  5  1  0
  5  6  1  0
  6  7  1  0
  7  8  2  0
  7  9  1  0
  9 10  2  0
 10 11  1  0
 11 12  2  0
 12 13  1  0
 13 14  1  0
 14 15  2  0
 14 16  1  0
 16 17  1  0
 17 18  1  0
 18 19  2  0
 19 20  1  0
 20 21  1  0
 20 22  1  0
 22 23  1  0
 23 24  2  0
 12 25  1  0
 25 26  2  0
 26  9  1  0
 23 13  1  0
 22 16  1  0
 21 17  1  0
M  END
$$$$
