
     RDKit          3D

 20 21  0  0  0  0  0  0  0  0999 V2000
   13.0681   49.0589   20.3388 C   0  0  0  0  0  0  0  0  0  0  0  0
   14.4241   49.0194   19.6941 C   0  0  0  0  0  0  0  0  0  0  0  0
   14.4054   48.1102   18.5174 C   0  0  0  0  0  0  0  0  0  0  0  0
   13.4218   46.9798   18.8111 C   0  0  0  0  0  0  0  0  0  0  0  0
   13.3967   45.9417   17.7412 C   0  0  0  0  0  0  0  0  0  0  0  0
   15.7558   47.4647   18.3315 C   0  0  0  0  0  0  0  0  0  0  0  0
   16.8735   48.4321   18.1619 C   0  0  0  0  0  0  0  0  0  0  0  0
   16.9829   48.9682   16.7355 C   0  0  0  0  0  0  0  0  0  0  0  0
   15.9897   50.0325   16.5811 N   0  0  0  0  0  0  0  0  0  0  0  0
   16.4670   51.1887   15.9058 C   0  0  0  0  0  0  0  0  0  0  0  0
   17.7047   51.3290   15.7716 O   0  0  0  0  0  0  0  0  0  0  0  0
   15.5670   52.2262   15.3581 C   0  0  0  0  0  0  0  0  0  0  0  0
   16.0016   52.5386   13.9431 C   0  0  0  0  0  0  0  0  0  0  0  0
   15.5555   53.8295   13.5046 N   0  0  0  0  0  0  0  0  0  0  0  0
   16.2289   54.7786   12.8305 C   0  0  0  0  0  0  0  0  0  0  0  0
   15.3915   55.8588   12.6266 C   0  0  0  0  0  0  0  0  0  0  0  0
   14.1911   55.5149   13.2068 C   0  0  0  0  0  0  0  0  0  0  0  0
   14.3234   54.2924   13.7240 N   0  0  0  0  0  0  0  0  0  0  0  0
   14.6265   50.0983   16.9961 C   0  0  0  0  0  0  0  0  0  0  0  0
   14.0015   48.7490   17.2382 C   0  0  0  0  0  0  0  0  0  0  0  0
  1  2  1  0
  2  3  1  0
  3  4  1  0
  4  5  1  0
  3  6  1  0
  6  7  1  0
  7  8  1  0
  8  9  1  0
  9 10  1  0
 10 11  2  0
 10 12  1  0
 12 13  1  0
 13 14  1  0
 14 15  1  0
 15 16  2  0
 16 17  1  0
 17 18  2  0
  9 19  1  0
 19 20  1  0
 20  3  1  0
 18 14  1  0
M  END
$$$$
