
     RDKit          3D

 22 24  0  0  0  0  0  0  0  0999 V2000
  -12.6535   56.5315   29.9511 C   0  0  0  0  0  0  0  0  0  0  0  0
  -11.9863   57.5665   29.2243 O   0  0  0  0  0  0  0  0  0  0  0  0
  -10.7888   58.0567   29.7633 C   0  0  0  0  0  0  0  0  0  0  0  0
   -9.5620   57.5550   29.3847 C   0  0  0  0  0  0  0  0  0  0  0  0
   -8.4041   58.0617   29.9364 C   0  0  0  0  0  0  0  0  0  0  0  0
   -8.4290   59.0773   30.8763 C   0  0  0  0  0  0  0  0  0  0  0  0
   -7.1493   59.5999   31.4323 C   0  0  0  0  0  0  0  0  0  0  0  0
   -6.4307   60.4149   30.3947 C   0  0  0  0  0  0  0  0  0  0  0  0
   -7.1782   60.7404   29.4152 O   0  0  0  0  0  0  0  0  0  0  0  0
   -5.0734   60.7836   30.4832 N   0  0  0  0  0  0  0  0  0  0  0  0
   -4.7056   62.1191   30.8954 C   0  0  0  0  0  0  0  0  0  0  0  0
   -5.5436   63.1686   30.5892 C   0  0  0  0  0  0  0  0  0  0  0  0
   -5.1573   64.4385   31.0174 C   0  0  0  0  0  0  0  0  0  0  0  0
   -3.9900   64.6419   31.7163 C   0  0  0  0  0  0  0  0  0  0  0  0
   -3.1837   63.5649   31.9990 C   0  0  0  0  0  0  0  0  0  0  0  0
   -3.5154   62.2656   31.5967 C   0  0  0  0  0  0  0  0  0  0  0  0
   -2.5949   61.1540   31.9205 C   0  0  0  0  0  0  0  0  0  0  0  0
   -3.1881   59.8419   31.5443 C   0  0  0  0  0  0  0  0  0  0  0  0
   -3.9495   59.9155   30.2114 C   0  0  0  0  0  0  0  0  0  0  0  0
   -2.9990   60.4949   29.1835 C   0  0  0  0  0  0  0  0  0  0  0  0
   -9.6512   59.5728   31.2498 C   0  0  0  0  0  0  0  0  0  0  0  0
  -10.8362   59.0678   30.6977 C   0  0  0  0  0  0  0  0  0  0  0  0
  1  2  1  0
  2  3  1  0
  3  4  2  0
  4  5  1  0
  5  6  2  0
  6  7  1  0
  7  8  1  0
  8  9  2  0
  8 10  1  0
 10 11  1  0
 11 12  2  0
 12 13  1  0
 13 14  2  0
 14 15  1  0
 15 16  2  0
 16 17  1  0
 17 18  1  0
 18 19  1  0
 19 20  1  0
  6 21  1  0
 21 22  2  0
 22  3  1  0
 19 10  1  0
 16 11  1  0
M  END
$$$$
