
     RDKit          3D

 19 20  0  0  0  0  0  0  0  0999 V2000
   17.1463   54.3633   13.9240 C   0  0  0  0  0  0  0  0  0  0  0  0
   17.5789   53.2236   14.8185 C   0  0  0  0  0  0  0  0  0  0  0  0
   18.2328   52.1410   14.0236 C   0  0  0  0  0  0  0  0  0  0  0  0
   17.3788   50.9158   14.0193 C   0  0  0  0  0  0  0  0  0  0  0  0
   15.9396   51.3418   13.8143 C   0  0  0  0  0  0  0  0  0  0  0  0
   15.4285   52.0358   14.9794 N   0  0  0  0  0  0  0  0  0  0  0  0
   14.7281   50.8866   16.0672 S   0  0  0  0  0  6  0  0  0  0  0  0
   13.5915   50.1652   15.4518 O   0  0  0  0  0  0  0  0  0  0  0  0
   14.2019   51.5729   17.3155 O   0  0  0  0  0  0  0  0  0  0  0  0
   15.9738   49.8155   16.5865 N   0  0  0  0  0  0  0  0  0  0  0  0
   15.4625   48.4898   16.8626 C   0  0  0  0  0  0  0  0  0  0  0  0
   16.2701   47.9064   18.0117 C   0  0  0  0  0  0  0  0  0  0  0  0
   17.5486   48.6891   18.0937 C   0  0  0  0  0  0  0  0  0  0  0  0
   16.5597   46.4733   17.6516 C   0  0  0  0  0  0  0  0  0  0  0  0
   15.4245   48.0346   19.2459 C   0  0  0  0  0  0  0  0  0  0  0  0
   15.1380   46.7701   19.9979 C   0  0  0  0  0  0  0  0  0  0  0  0
   13.7527   47.3657   20.2903 C   0  0  0  0  0  0  0  0  0  0  0  0
   13.9286   48.1348   18.9804 C   0  0  0  0  0  0  0  0  0  0  0  0
   16.4444   52.7705   15.6763 C   0  0  0  0  0  0  0  0  0  0  0  0
  1  2  1  0
  2  3  1  0
  3  4  1  0
  4  5  1  0
  5  6  1  0
  6  7  1  0
  7  8  2  0
  7  9  2  0
  7 10  1  0
 10 11  1  0
 11 12  1  0
 12 13  1  0
 12 14  1  0
 12 15  1  0
 15 16  1  0
 16 17  1  0
 17 18  1  0
  6 19  1  0
 19  2  1  0
 18 15  1  0
M  END
$$$$
