
     RDKit          3D

 33 35  0  0  0  0  0  0  0  0999 V2000
   16.2629   44.9309   18.1436 C   0  0  0  0  0  0  0  0  0  0  0  0
   15.7817   46.3675   17.9084 C   0  0  0  0  0  0  0  0  0  0  0  0
   16.6304   47.2533   18.7599 C   0  0  0  0  0  0  0  0  0  0  0  0
   17.1973   48.4423   18.0592 C   0  0  0  0  0  0  0  0  0  0  0  0
   16.3036   48.9664   16.9603 C   0  0  0  0  0  0  0  0  0  0  0  0
   17.0314   49.8207   16.1260 O   0  0  0  0  0  0  0  0  0  0  0  0
   16.5497   51.0252   15.6411 C   0  0  0  0  0  0  0  0  0  0  0  0
   15.2517   51.3534   15.9759 C   0  0  0  0  0  0  0  0  0  0  0  0
   14.4688   50.5119   16.7636 O   0  0  0  0  0  0  0  0  0  0  0  0
   13.1257   50.8811   17.0154 C   0  0  0  0  0  0  0  0  0  0  0  0
   14.7665   52.5443   15.4992 C   0  0  0  0  0  0  0  0  0  0  0  0
   15.5485   53.4013   14.7028 C   0  0  0  0  0  0  0  0  0  0  0  0
   15.0429   54.5204   14.2744 O   0  0  0  0  0  0  0  0  0  0  0  0
   15.6960   55.4028   13.5139 C   0  0  0  0  0  0  0  0  0  0  0  0
   14.9961   56.6178   13.1113 C   0  0  0  0  0  0  0  0  0  0  0  0
   15.7156   57.8291   13.0831 C   0  0  0  0  0  0  0  0  0  0  0  0
   15.1361   59.0048   12.6792 C   0  0  0  0  0  0  0  0  0  0  0  0
   13.8166   59.0439   12.2828 C   0  0  0  0  0  0  0  0  0  0  0  0
   13.2455   60.2284   11.8803 O   0  0  0  0  0  0  0  0  0  0  0  0
   13.6040   61.4234   12.5313 C   0  0  0  0  0  0  0  0  0  0  0  0
   13.0857   57.8966   12.2943 C   0  0  0  0  0  0  0  0  0  0  0  0
   11.7526   57.8345   11.9139 O   0  0  0  0  0  0  0  0  0  0  0  0
   10.7707   58.6757   12.4827 C   0  0  0  0  0  0  0  0  0  0  0  0
   13.6956   56.7144   12.7078 C   0  0  0  0  0  0  0  0  0  0  0  0
   16.9676   55.0915   13.1754 C   0  0  0  0  0  0  0  0  0  0  0  0
   17.7574   55.9130   12.3795 O   0  0  0  0  0  0  0  0  0  0  0  0
   17.8795   55.4942   11.0130 C   0  0  0  0  0  0  0  0  0  0  0  0
   17.5841   53.9002   13.6018 C   0  0  0  0  0  0  0  0  0  0  0  0
   18.7486   53.6388   13.2797 O   0  0  0  0  0  0  0  0  0  0  0  0
   16.8408   53.0549   14.3802 C   0  0  0  0  0  0  0  0  0  0  0  0
   17.3375   51.8522   14.8592 C   0  0  0  0  0  0  0  0  0  0  0  0
   18.6415   51.5228   14.5212 O   0  0  0  0  0  0  0  0  0  0  0  0
   19.6557   51.5696   15.4990 C   0  0  0  0  0  0  0  0  0  0  0  0
  1  2  1  0
  2  3  1  0
  3  4  1  0
  4  5  1  0
  5  6  1  0
  6  7  1  0
  7  8  2  0
  8  9  1  0
  9 10  1  0
  8 11  1  0
 11 12  2  0
 12 13  1  0
 13 14  1  0
 14 15  1  0
 15 16  2  0
 16 17  1  0
 17 18  2  0
 18 19  1  0
 19 20  1  0
 18 21  1  0
 21 22  1  0
 22 23  1  0
 21 24  2  0
 14 25  2  0
 25 26  1  0
 26 27  1  0
 25 28  1  0
 28 29  2  0
 28 30  1  0
 30 31  2  0
 31 32  1  0
 32 33  1  0
 31  7  1  0
 30 12  1  0
 24 15  1  0
M  END
$$$$
