
     RDKit          3D

 23 25  0  0  0  0  0  0  0  0999 V2000
   13.6325  100.9542   51.4783 C   0  0  0  0  0  0  0  0  0  0  0  0
   14.3195  100.1090   52.3759 O   0  0  0  0  0  0  0  0  0  0  0  0
   15.1902  100.5851   53.3405 C   0  0  0  0  0  0  0  0  0  0  0  0
   16.4422  101.0861   53.0652 C   0  0  0  0  0  0  0  0  0  0  0  0
   17.1155  101.2251   51.7347 C   0  0  0  0  0  0  0  0  0  0  0  0
   16.9469  101.4336   54.2723 N   0  0  0  0  0  0  0  0  0  0  0  0
   16.0459  101.1567   55.2291 N   0  0  0  0  0  0  0  0  0  0  0  0
   14.9499  100.6334   54.7024 C   0  0  0  0  0  0  0  0  0  0  0  0
   13.7415  100.1892   55.3251 N   0  0  0  0  0  0  0  0  0  0  0  0
   13.6912   99.6479   56.6205 C   0  0  0  0  0  0  0  0  0  0  0  0
   14.7234   99.3737   57.2401 O   0  0  0  0  0  0  0  0  0  0  0  0
   12.4360   99.3891   57.2823 N   0  0  0  0  0  0  0  0  0  0  0  0
   12.3559   98.5237   58.4059 C   0  0  0  0  0  0  0  0  0  0  0  0
   11.1386   98.3211   59.0215 C   0  0  0  0  0  0  0  0  0  0  0  0
   11.0256   97.4747   60.1306 C   0  0  0  0  0  0  0  0  0  0  0  0
   12.1275   96.8203   60.6384 C   0  0  0  0  0  0  0  0  0  0  0  0
   12.0065   95.9296   61.8062 C   0  0  0  0  0  0  0  0  0  0  0  0
   10.9506   95.7890   62.6360 N   0  0  0  0  0  0  0  0  0  0  0  0
   11.2312   94.8748   63.5827 C   0  0  0  0  0  0  0  0  0  0  0  0
   12.4886   94.4580   63.3112 N   0  0  0  0  0  0  0  0  0  0  0  0
   12.9495   95.0999   62.2369 N   0  0  0  0  0  0  0  0  0  0  0  0
   13.3417   97.0254   60.0206 C   0  0  0  0  0  0  0  0  0  0  0  0
   13.4507   97.8680   58.9174 C   0  0  0  0  0  0  0  0  0  0  0  0
  1  2  1  0
  2  3  1  0
  3  4  1  0
  4  5  1  0
  4  6  2  0
  6  7  1  0
  7  8  1  0
  8  9  1  0
  9 10  1  0
 10 11  2  0
 10 12  1  0
 12 13  1  0
 13 14  2  0
 14 15  1  0
 15 16  2  0
 16 17  1  0
 17 18  1  0
 18 19  2  0
 19 20  1  0
 20 21  1  0
 16 22  1  0
 22 23  2  0
  8  3  2  0
 23 13  1  0
 21 17  2  0
M  END
$$$$
