
     RDKit          3D

 21 23  0  0  0  0  0  0  0  0999 V2000
   14.4089  101.3580   54.5682 C   0  0  0  0  0  0  0  0  0  0  0  0
   14.2783  100.5102   55.6861 O   0  0  0  0  0  0  0  0  0  0  0  0
   13.2149  100.6510   56.5500 C   0  0  0  0  0  0  0  0  0  0  0  0
   13.0451   99.7504   57.5558 C   0  0  0  0  0  0  0  0  0  0  0  0
   12.0027   99.8187   58.4682 C   0  0  0  0  0  0  0  0  0  0  0  0
   11.8553   98.8359   59.5306 C   0  0  0  0  0  0  0  0  0  0  0  0
   12.7090   97.8818   59.9258 N   0  0  0  0  0  0  0  0  0  0  0  0
   12.1548   97.2017   60.9494 C   0  0  0  0  0  0  0  0  0  0  0  0
   12.7197   96.0845   61.6897 C   0  0  0  0  0  0  0  0  0  0  0  0
   11.9741   95.4396   62.6475 C   0  0  0  0  0  0  0  0  0  0  0  0
   12.5301   94.3845   63.3355 C   0  0  0  0  0  0  0  0  0  0  0  0
   13.8345   93.9594   63.0777 C   0  0  0  0  0  0  0  0  0  0  0  0
   14.4006   92.8585   63.8025 C   0  0  0  0  0  0  0  0  0  0  0  0
   14.8457   91.9483   64.3938 N   0  0  0  0  0  0  0  0  0  0  0  0
   14.5350   94.6435   62.1064 C   0  0  0  0  0  0  0  0  0  0  0  0
   13.9949   95.6703   61.4364 N   0  0  0  0  0  0  0  0  0  0  0  0
   10.9550   97.7767   61.1488 N   0  0  0  0  0  0  0  0  0  0  0  0
   10.8049   98.7308   60.3045 O   0  0  0  0  0  0  0  0  0  0  0  0
   11.1209  100.8649   58.3106 C   0  0  0  0  0  0  0  0  0  0  0  0
   11.3193  101.7699   57.2737 C   0  0  0  0  0  0  0  0  0  0  0  0
   12.3547  101.6640   56.4033 N   0  0  0  0  0  0  0  0  0  0  0  0
  1  2  1  0
  2  3  1  0
  3  4  2  0
  4  5  1  0
  5  6  1  0
  6  7  2  0
  7  8  1  0
  8  9  1  0
  9 10  2  0
 10 11  1  0
 11 12  2  0
 12 13  1  0
 13 14  3  0
 12 15  1  0
 15 16  2  0
  8 17  2  0
 17 18  1  0
  5 19  2  0
 19 20  1  0
 20 21  2  0
 21  3  1  0
 18  6  1  0
 16  9  1  0
M  END
$$$$
