
     RDKit          3D

 25 27  0  0  0  0  0  0  0  0999 V2000
   13.1944   56.6192   11.0739 N   0  0  0  0  0  0  0  0  0  0  0  0
   13.8440   57.6740   11.7762 C   0  0  0  0  0  0  0  0  0  0  0  0
   13.5939   58.9770   11.3962 C   0  0  0  0  0  0  0  0  0  0  0  0
   14.1840   60.0578   12.0264 C   0  0  0  0  0  0  0  0  0  0  0  0
   15.0504   59.7877   13.0708 C   0  0  0  0  0  0  0  0  0  0  0  0
   15.3220   58.4895   13.4761 C   0  0  0  0  0  0  0  0  0  0  0  0
   14.7136   57.4376   12.8224 C   0  0  0  0  0  0  0  0  0  0  0  0
   14.9658   56.0937   13.2076 N   0  0  0  0  0  0  0  0  0  0  0  0
   15.4676   55.8262   14.5068 C   0  0  0  0  0  0  0  0  0  0  0  0
   15.8863   56.7801   15.2098 O   0  0  0  0  0  0  0  0  0  0  0  0
   15.4928   54.4566   15.0113 C   0  0  0  0  0  0  0  0  0  0  0  0
   16.0319   53.4806   14.3008 C   0  0  0  0  0  0  0  0  0  0  0  0
   16.2335   52.1586   14.9264 C   0  0  0  0  0  0  0  0  0  0  0  0
   17.4284   51.6367   15.3566 C   0  0  0  0  0  0  0  0  0  0  0  0
   17.1430   50.4163   15.8568 N   0  0  0  0  0  0  0  0  0  0  0  0
   15.8621   50.1594   15.7616 N   0  0  0  0  0  0  0  0  0  0  0  0
   15.2573   48.9173   16.2191 C   0  0  0  0  0  0  0  0  0  0  0  0
   14.7217   49.0885   17.5946 C   0  0  0  0  0  0  0  0  0  0  0  0
   15.4957   48.7243   18.6815 C   0  0  0  0  0  0  0  0  0  0  0  0
   15.0589   48.8572   19.9783 C   0  0  0  0  0  0  0  0  0  0  0  0
   13.7895   49.3770   20.2345 C   0  0  0  0  0  0  0  0  0  0  0  0
   13.3790   49.5002   21.4989 F   0  0  0  0  0  0  0  0  0  0  0  0
   13.0356   49.7330   19.1418 C   0  0  0  0  0  0  0  0  0  0  0  0
   13.4737   49.5993   17.8509 C   0  0  0  0  0  0  0  0  0  0  0  0
   15.2764   51.2124   15.1934 C   0  0  0  0  0  0  0  0  0  0  0  0
  1  2  1  0
  2  3  2  0
  3  4  1  0
  4  5  2  0
  5  6  1  0
  6  7  2  0
  7  8  1  0
  8  9  1  0
  9 10  2  0
  9 11  1  0
 11 12  2  0
 12 13  1  0
 13 14  1  0
 14 15  2  0
 15 16  1  0
 16 17  1  0
 17 18  1  0
 18 19  2  0
 19 20  1  0
 20 21  2  0
 21 22  1  0
 21 23  1  0
 23 24  2  0
 16 25  1  0
  7  2  1  0
 25 13  2  0
 24 18  1  0
M  END
$$$$
