
     RDKit          3D

 21 23  0  0  0  0  0  0  0  0999 V2000
   12.0406   56.8268   12.9032 C   0  0  0  0  0  0  0  0  0  0  0  0
   13.3219   57.2585   12.2659 C   0  0  0  0  0  0  0  0  0  0  0  0
   13.3172   58.2950   11.5882 O   0  0  0  0  0  0  0  0  0  0  0  0
   14.4940   56.4597   12.4650 N   0  0  0  0  0  0  0  0  0  0  0  0
   15.7492   56.9962   11.9771 C   0  0  0  0  0  0  0  0  0  0  0  0
   16.8738   56.1908   12.5800 C   0  0  0  0  0  0  0  0  0  0  0  0
   16.5821   56.0626   14.0644 C   0  0  0  0  0  0  0  0  0  0  0  0
   15.3596   55.1691   14.2972 C   0  0  2  0  0  0  0  0  0  0  0  0
   15.8135   53.7796   14.6492 C   0  0  0  0  0  0  0  0  0  0  0  0
   15.2748   52.9810   15.5900 N   0  0  0  0  0  0  0  0  0  0  0  0
   15.9298   51.8017   15.6396 C   0  0  0  0  0  0  0  0  0  0  0  0
   15.6585   50.6671   16.5199 C   0  0  0  0  0  0  0  0  0  0  0  0
   14.3712   50.4350   16.9603 C   0  0  0  0  0  0  0  0  0  0  0  0
   14.0909   49.3583   17.8005 C   0  0  0  0  0  0  0  0  0  0  0  0
   15.0917   48.5036   18.2090 C   0  0  0  0  0  0  0  0  0  0  0  0
   14.7734   47.1385   19.2664 Cl  0  0  0  0  0  0  0  0  0  0  0  0
   16.3826   48.7163   17.7819 C   0  0  0  0  0  0  0  0  0  0  0  0
   16.6234   49.7842   16.9564 C   0  0  0  0  0  0  0  0  0  0  0  0
   16.8835   51.9171   14.6949 N   0  0  0  0  0  0  0  0  0  0  0  0
   16.7983   53.0909   14.1220 O   0  0  0  0  0  0  0  0  0  0  0  0
   14.4282   55.1720   13.1249 C   0  0  0  0  0  0  0  0  0  0  0  0
  1  2  1  0
  2  3  2  0
  2  4  1  0
  4  5  1  0
  5  6  1  0
  6  7  1  0
  7  8  1  0
  8  9  1  6
  9 10  2  0
 10 11  1  0
 11 12  1  0
 12 13  2  0
 13 14  1  0
 14 15  2  0
 15 16  1  0
 15 17  1  0
 17 18  2  0
 11 19  2  0
 19 20  1  0
  8 21  1  0
 21  4  1  0
 20  9  1  0
 18 12  1  0
M  END
$$$$
