
     RDKit          3D

 38 42  0  0  0  0  0  0  0  0999 V2000
   40.4025   79.2141   55.1034 O   0  0  0  0  0  0  0  0  0  0  0  0
   39.5313   79.6897   54.3245 C   0  0  0  0  0  0  0  0  0  0  0  0
   39.6984   80.9683   53.6917 N   0  0  0  0  0  0  0  0  0  0  0  0
   38.6162   81.5506   52.9094 C   0  0  0  0  0  0  0  0  0  0  0  0
   37.7402   80.4304   52.4211 C   0  0  0  0  0  0  0  0  0  0  0  0
   36.4964   80.8856   51.7867 C   0  0  0  0  0  0  0  0  0  0  0  0
   36.3898   80.9436   50.4198 C   0  0  0  0  0  0  0  0  0  0  0  0
   35.1985   81.3723   49.8223 C   0  0  0  0  0  0  0  0  0  0  0  0
   34.1277   81.7379   50.6042 C   0  0  0  0  0  0  0  0  0  0  0  0
   32.9364   82.1658   50.0570 C   0  0  0  0  0  0  0  0  0  0  0  0
   31.9027   82.5179   50.8720 C   0  0  0  0  0  0  0  0  0  0  0  0
   31.9994   82.4636   52.2301 C   0  0  0  0  0  0  0  0  0  0  0  0
   33.1850   82.0376   52.7844 C   0  0  0  0  0  0  0  0  0  0  0  0
   34.2613   81.6703   51.9857 C   0  0  0  0  0  0  0  0  0  0  0  0
   35.4343   81.2482   52.5741 C   0  0  0  0  0  0  0  0  0  0  0  0
   39.0977   82.4146   51.8400 C   0  0  0  0  0  0  0  0  0  0  0  0
   38.7474   82.0743   50.6400 O   0  0  0  0  0  0  0  0  0  0  0  0
   39.8959   83.5530   52.0383 N   0  0  0  0  0  0  0  0  0  0  0  0
   40.1286   84.1016   53.3290 C   0  0  0  0  0  0  0  0  0  0  0  0
   41.5814   84.5383   53.5065 C   0  0  0  0  0  0  0  0  0  0  0  0
   41.9610   85.5842   52.4931 C   0  0  0  0  0  0  0  0  0  0  0  0
   42.0019   86.9361   53.0513 C   0  0  0  0  0  0  0  0  0  0  0  0
   42.8085   87.9671   52.4519 C   0  0  0  0  0  0  0  0  0  0  0  0
   42.2993   89.2359   52.2990 C   0  0  0  0  0  0  0  0  0  0  0  0
   43.0562   90.2695   51.7309 C   0  0  0  0  0  0  0  0  0  0  0  0
   44.3416   90.0392   51.3066 C   0  0  0  0  0  0  0  0  0  0  0  0
   44.8653   88.7802   51.4508 C   0  0  0  0  0  0  0  0  0  0  0  0
   44.1162   87.7685   52.0103 C   0  0  0  0  0  0  0  0  0  0  0  0
   40.9034   85.6104   51.3615 C   0  0  0  0  0  0  0  0  0  0  0  0
   40.5421   84.2324   50.9113 C   0  0  0  0  0  0  0  0  0  0  0  0
   38.4072   78.9356   54.1006 O   0  0  0  0  0  0  0  0  0  0  0  0
   38.0731   77.6941   54.6555 C   0  0  0  0  0  0  0  0  0  0  0  0
   37.8244   76.6119   53.7092 C   0  0  0  0  0  0  0  0  0  0  0  0
   38.7626   76.2685   52.7692 C   0  0  0  0  0  0  0  0  0  0  0  0
   38.4994   75.2206   51.8904 C   0  0  0  0  0  0  0  0  0  0  0  0
   37.3069   74.5540   51.9829 C   0  0  0  0  0  0  0  0  0  0  0  0
   36.3734   74.9053   52.9269 C   0  0  0  0  0  0  0  0  0  0  0  0
   36.6126   75.9382   53.8064 C   0  0  0  0  0  0  0  0  0  0  0  0
  1  2  2  0
  2  3  1  0
  3  4  1  0
  4  5  1  0
  5  6  1  0
  6  7  2  0
  7  8  1  0
  8  9  2  0
  9 10  1  0
 10 11  2  0
 11 12  1  0
 12 13  2  0
 13 14  1  0
 14 15  2  0
  4 16  1  0
 16 17  2  0
 16 18  1  0
 18 19  1  0
 19 20  1  0
 20 21  1  0
 21 22  1  0
 22 23  1  0
 23 24  2  0
 24 25  1  0
 25 26  2  0
 26 27  1  0
 27 28  2  0
 21 29  1  0
 29 30  1  0
  2 31  1  0
 31 32  1  0
 32 33  1  0
 33 34  2  0
 34 35  1  0
 35 36  2  0
 36 37  1  0
 37 38  2  0
 15  6  1  0
 30 18  1  0
 38 33  1  0
 14  9  1  0
 28 23  1  0
M  END
$$$$
