
     RDKit          3D

 22 25  0  0  0  0  0  0  0  0999 V2000
   14.5671   45.2645   18.3166 C   0  0  0  0  0  0  0  0  0  0  0  0
   14.6901   46.7723   18.4427 C   0  0  0  0  0  0  0  0  0  0  0  0
   14.5262   47.1206   19.9155 C   0  0  0  0  0  0  0  0  0  0  0  0
   14.6413   48.6227   20.0643 C   0  0  0  0  0  0  0  0  0  0  0  0
   13.4597   49.2371   19.3650 C   0  0  0  0  0  0  0  0  0  0  0  0
   13.5534   48.8693   17.9024 C   0  0  0  0  0  0  0  0  0  0  0  0
   12.4420   49.4681   17.0875 C   0  0  0  0  0  0  0  0  0  0  0  0
   13.5201   47.3721   17.7013 C   0  0  0  0  0  0  0  0  0  0  0  0
   14.8553   49.3787   17.3780 C   0  0  0  0  0  0  0  0  0  0  0  0
   16.0593   48.7629   18.0595 C   0  0  0  0  0  0  0  0  0  0  0  0
   17.2321   49.3488   17.4527 N   0  0  0  0  0  0  0  0  0  0  0  0
   18.5266   49.2071   18.0387 C   0  0  0  0  0  0  0  0  0  0  0  0
   18.7120   48.3412   18.9030 O   0  0  0  0  0  0  0  0  0  0  0  0
   19.6260   50.0358   17.6605 N   0  0  0  0  0  0  0  0  0  0  0  0
   20.9203   49.8856   18.2318 C   0  0  0  0  0  0  0  0  0  0  0  0
   21.9537   50.7435   18.0166 C   0  0  0  0  0  0  0  0  0  0  0  0
   23.1773   50.5433   18.5966 C   0  0  0  0  0  0  0  0  0  0  0  0
   23.4091   49.4682   19.4186 C   0  0  0  0  0  0  0  0  0  0  0  0
   22.3846   48.5877   19.6526 C   0  0  0  0  0  0  0  0  0  0  0  0
   21.1434   48.8011   19.0571 C   0  0  0  0  0  0  0  0  0  0  0  0
   15.9536   49.0937   19.5303 C   0  0  0  0  0  0  0  0  0  0  0  0
   16.0210   47.2574   17.9196 C   0  0  0  0  0  0  0  0  0  0  0  0
  1  2  1  0
  2  3  1  0
  3  4  1  0
  4  5  1  0
  5  6  1  0
  6  7  1  0
  6  8  1  0
  6  9  1  0
  9 10  1  0
 10 11  1  0
 11 12  1  0
 12 13  2  0
 12 14  1  0
 14 15  1  0
 15 16  2  0
 16 17  1  0
 17 18  2  0
 18 19  1  0
 19 20  2  0
 10 21  1  0
 10 22  1  0
  8  2  1  0
 20 15  1  0
 22  2  1  0
 21  4  1  0
M  END
$$$$
