
     RDKit          3D

 17 17  0  0  0  0  0  0  0  0999 V2000
   37.7481   81.1954   47.9908 C   0  0  0  0  0  0  0  0  0  0  0  0
   37.2110   81.9250   49.0168 O   0  0  0  0  0  0  0  0  0  0  0  0
   35.8513   82.0901   48.9702 C   0  0  0  0  0  0  0  0  0  0  0  0
   35.2961   82.8083   50.1685 C   0  0  0  0  0  0  0  0  0  0  0  0
   34.6113   81.8610   51.0968 C   0  0  0  0  0  0  0  0  0  0  0  0
   34.9914   82.0771   52.5443 C   0  0  0  0  0  0  0  0  0  0  0  0
   36.4364   81.6281   52.7224 C   0  0  0  0  0  0  0  0  0  0  0  0
   36.7721   81.6606   54.0878 O   0  0  0  0  0  0  0  0  0  0  0  0
   37.7395   80.6814   54.3105 C   0  0  0  0  0  0  0  0  0  0  0  0
   33.1432   82.0121   50.9341 C   0  0  0  0  0  0  0  0  0  0  0  0
   32.5999   82.4193   49.7330 C   0  0  0  0  0  0  0  0  0  0  0  0
   31.2386   82.5647   49.5649 C   0  0  0  0  0  0  0  0  0  0  0  0
   30.3952   82.2963   50.6252 C   0  0  0  0  0  0  0  0  0  0  0  0
   29.0448   82.4261   50.5051 F   0  0  0  0  0  0  0  0  0  0  0  0
   30.9044   81.8868   51.8414 C   0  0  0  0  0  0  0  0  0  0  0  0
   29.7288   81.5150   53.3117 Br  0  0  0  0  0  0  0  0  0  0  0  0
   32.2679   81.7527   51.9724 C   0  0  0  0  0  0  0  0  0  0  0  0
  1  2  1  0
  2  3  1  0
  3  4  1  0
  4  5  1  0
  5  6  1  0
  6  7  1  0
  7  8  1  0
  8  9  1  0
  5 10  1  0
 10 11  2  0
 11 12  1  0
 12 13  2  0
 13 14  1  0
 13 15  1  0
 15 16  1  0
 15 17  2  0
 17 10  1  0
M  END
$$$$
