
     RDKit          3D

 34 38  0  0  0  0  0  0  0  0999 V2000
   13.0868   64.3254   10.7488 N   0  0  0  0  0  0  0  0  0  0  0  0
   12.4277   63.6601   11.4943 C   0  0  0  0  0  0  0  0  0  0  0  0
   11.6400   62.8351   12.3851 C   0  0  0  0  0  0  0  0  0  0  0  0
   12.2557   61.4901   12.6687 C   0  0  0  0  0  0  0  0  0  0  0  0
   13.0122   61.4029   13.6561 O   0  0  0  0  0  0  0  0  0  0  0  0
   11.9706   60.4260   11.8110 N   0  0  0  0  0  0  0  0  0  0  0  0
   12.4757   59.1078   11.8603 C   0  0  0  0  0  0  0  0  0  0  0  0
   13.2211   58.5489   12.8511 C   0  0  0  0  0  0  0  0  0  0  0  0
   13.6697   57.2485   12.8798 C   0  0  0  0  0  0  0  0  0  0  0  0
   14.3975   56.6372   13.9035 N   0  0  0  0  0  0  0  0  0  0  0  0
   15.1855   55.4706   13.7607 C   0  0  0  0  0  0  0  0  0  0  0  0
   15.1346   54.3988   14.5744 N   0  0  0  0  0  0  0  0  0  0  0  0
   16.0019   53.3384   14.4626 C   0  0  0  0  0  0  0  0  0  0  0  0
   15.8108   52.2438   15.3994 C   0  0  0  0  0  0  0  0  0  0  0  0
   16.9054   51.3548   15.5798 C   0  0  0  0  0  0  0  0  0  0  0  0
   16.8005   50.3339   16.4637 C   0  0  0  0  0  0  0  0  0  0  0  0
   15.6762   50.1245   17.1925 C   0  0  0  0  0  0  0  0  0  0  0  0
   14.5697   51.0287   17.0034 C   0  0  0  0  0  0  0  0  0  0  0  0
   13.3578   50.7084   17.7626 C   0  0  0  0  0  0  0  0  0  0  0  0
   13.0431   51.8268   18.5157 F   0  0  0  0  0  0  0  0  0  0  0  0
   13.4928   49.5927   18.5634 F   0  0  0  0  0  0  0  0  0  0  0  0
   12.3005   50.4787   16.8930 F   0  0  0  0  0  0  0  0  0  0  0  0
   14.7568   51.9917   16.1295 N   0  0  0  0  0  0  0  0  0  0  0  0
   16.9284   53.3758   13.5072 N   0  0  0  0  0  0  0  0  0  0  0  0
   17.0514   54.4160   12.6386 N   0  0  0  0  0  0  0  0  0  0  0  0
   17.8846   54.6743   11.6254 C   0  0  0  0  0  0  0  0  0  0  0  0
   17.5566   55.8798   11.0982 C   0  0  0  0  0  0  0  0  0  0  0  0
   16.4719   56.3782   11.8259 C   0  0  0  0  0  0  0  0  0  0  0  0
   16.1684   55.4229   12.8055 C   0  0  0  0  0  0  0  0  0  0  0  0
   13.2788   56.5018   11.7493 C   0  0  0  0  0  0  0  0  0  0  0  0
   12.5350   57.0495   10.7514 C   0  0  0  0  0  0  0  0  0  0  0  0
   12.1264   58.3171   10.7737 N   0  0  0  0  0  0  0  0  0  0  0  0
   10.2147   63.0547   12.6683 C   0  0  0  0  0  0  0  0  0  0  0  0
   11.1762   63.5595   13.6980 C   0  0  0  0  0  0  0  0  0  0  0  0
  1  2  3  0
  2  3  1  0
  3  4  1  0
  4  5  2  0
  4  6  1  0
  6  7  1  0
  7  8  2  0
  8  9  1  0
  9 10  1  0
 10 11  1  0
 11 12  2  0
 12 13  1  0
 13 14  1  0
 14 15  2  0
 15 16  1  0
 16 17  2  0
 17 18  1  0
 18 19  1  0
 19 20  1  0
 19 21  1  0
 19 22  1  0
 18 23  2  0
 13 24  2  0
 24 25  1  0
 25 26  1  0
 26 27  2  0
 27 28  1  0
 28 29  2  0
  9 30  2  0
 30 31  1  0
 31 32  2  0
  3 33  1  0
 33 34  1  0
 34  3  1  0
 32  7  1  0
 29 11  1  0
 23 14  1  0
 29 25  1  0
M  END
$$$$
