
     RDKit          3D

 22 23  0  0  0  0  0  0  0  0999 V2000
   13.2733   93.3577   65.5572 C   0  0  0  0  0  0  0  0  0  0  0  0
   13.9418   93.2623   64.2274 C   0  0  0  0  0  0  0  0  0  0  0  0
   14.4502   91.8437   63.9748 C   0  0  0  0  0  0  0  0  0  0  0  0
   15.1954   94.1351   64.2902 C   0  0  0  0  0  0  0  0  0  0  0  0
   13.1111   93.6861   63.0576 C   0  0  0  0  0  0  0  0  0  0  0  0
   12.9220   92.6585   62.1483 O   0  0  0  0  0  0  0  0  0  0  0  0
   11.8742   94.4253   63.4270 C   0  0  0  0  0  0  0  0  0  0  0  0
   11.7309   95.7248   62.8296 N   0  0  0  0  0  0  0  0  0  0  0  0
   11.9353   95.8872   61.4172 C   0  0  0  0  0  0  0  0  0  0  0  0
   11.8801   94.8465   60.7400 O   0  0  0  0  0  0  0  0  0  0  0  0
   12.1805   97.1255   60.8294 N   0  0  0  0  0  0  0  0  0  0  0  0
   11.4532   97.8078   59.8298 C   0  0  0  0  0  0  0  0  0  0  0  0
   12.0940   98.1794   58.5463 C   0  0  0  0  0  0  0  0  0  0  0  0
   13.4105   98.8401   58.5888 C   0  0  0  0  0  0  0  0  0  0  0  0
   13.7097   99.4889   57.2770 N   0  0  0  0  0  0  0  0  0  0  0  0
   13.7248   98.5833   56.1944 C   0  0  0  0  0  0  0  0  0  0  0  0
   12.9240   99.0856   55.0071 C   0  0  0  0  0  0  0  0  0  0  0  0
   13.2976  100.5240   54.7668 C   0  0  0  0  0  0  0  0  0  0  0  0
   12.8057  101.3509   55.9137 C   0  0  0  0  0  0  0  0  0  0  0  0
   12.8058  100.6006   57.1983 C   0  0  0  0  0  0  0  0  0  0  0  0
   11.4186  100.2471   57.7002 C   0  0  0  0  0  0  0  0  0  0  0  0
   11.1625   98.9094   57.7779 O   0  0  0  0  0  0  0  0  0  0  0  0
  1  2  1  0
  2  3  1  0
  2  4  1  0
  2  5  1  0
  5  6  1  0
  5  7  1  0
  7  8  1  0
  8  9  1  0
  9 10  2  0
  9 11  1  0
 11 12  1  0
 12 13  1  0
 13 14  1  0
 14 15  1  0
 15 16  1  0
 16 17  1  0
 17 18  1  0
 18 19  1  0
 19 20  1  0
 20 21  1  0
 21 22  1  0
 22 13  1  0
 20 15  1  0
M  END
$$$$
