
     RDKit          3D

 28 31  0  0  0  0  0  0  0  0999 V2000
   13.2423   95.6748   60.2061 O   0  0  0  0  0  0  0  0  0  0  0  0
   12.1980   96.0006   60.8091 C   0  0  0  0  0  0  0  0  0  0  0  0
   11.8503   95.3283   62.0163 N   0  0  0  0  0  0  0  0  0  0  0  0
   12.5626   94.2083   62.5196 C   0  0  0  0  0  0  0  0  0  0  0  0
   11.8772   93.3707   63.3801 C   0  0  0  0  0  0  0  0  0  0  0  0
   12.4681   92.2608   63.9248 C   0  0  0  0  0  0  0  0  0  0  0  0
   13.7863   91.9997   63.5846 C   0  0  0  0  0  0  0  0  0  0  0  0
   14.4724   92.8384   62.7230 C   0  0  0  0  0  0  0  0  0  0  0  0
   16.1345   92.4667   62.3239 Cl  0  0  0  0  0  0  0  0  0  0  0  0
   13.8780   93.9505   62.1782 C   0  0  0  0  0  0  0  0  0  0  0  0
   11.4009   97.0352   60.2564 N   0  0  0  0  0  0  0  0  0  0  0  0
   11.8645   97.7828   59.1435 C   0  0  0  0  0  0  0  0  0  0  0  0
   12.9907   98.2956   58.8082 N   0  0  0  0  0  0  0  0  0  0  0  0
   13.1601   98.9361   57.7339 N   0  0  0  0  0  0  0  0  0  0  0  0
   12.2056   99.1292   56.8771 C   0  0  0  0  0  0  0  0  0  0  0  0
   11.9968   99.9294   55.3119 S   0  0  0  0  0  0  0  0  0  0  0  0
   13.5768  100.4391   54.6488 C   0  0  0  0  0  0  0  0  0  0  0  0
   14.7313  100.5745   55.3167 N   0  0  0  0  0  0  0  0  0  0  0  0
   15.6476  100.9674   54.4590 N   0  0  0  0  0  0  0  0  0  0  0  0
   15.0805  101.0822   53.2489 C   0  0  0  0  0  0  0  0  0  0  0  0
   15.7650  101.4941   52.0324 C   0  0  0  0  0  0  0  0  0  0  0  0
   17.0861  101.9029   52.0490 C   0  0  0  0  0  0  0  0  0  0  0  0
   17.7303  102.2928   50.8905 C   0  0  0  0  0  0  0  0  0  0  0  0
   17.0838  102.2906   49.6703 C   0  0  0  0  0  0  0  0  0  0  0  0
   15.7678  101.8835   49.6532 C   0  0  0  0  0  0  0  0  0  0  0  0
   15.1215  101.4936   50.8077 C   0  0  0  0  0  0  0  0  0  0  0  0
   13.8260  100.7541   53.4028 O   0  0  0  0  0  0  0  0  0  0  0  0
   10.8437   98.2326   57.7852 S   0  0  0  0  0  0  0  0  0  0  0  0
  1  2  2  0
  2  3  1  0
  3  4  1  0
  4  5  2  0
  5  6  1  0
  6  7  2  0
  7  8  1  0
  8  9  1  0
  8 10  2  0
  2 11  1  0
 11 12  1  0
 12 13  2  0
 13 14  1  0
 14 15  2  0
 15 16  1  0
 16 17  1  0
 17 18  2  0
 18 19  1  0
 19 20  2  0
 20 21  1  0
 21 22  2  0
 22 23  1  0
 23 24  2  0
 24 25  1  0
 25 26  2  0
 20 27  1  0
 15 28  1  0
 10  4  1  0
 28 12  1  0
 27 17  1  0
 26 21  1  0
M  END
$$$$
