
     RDKit          3D

 24 26  0  0  0  0  0  0  0  0999 V2000
   17.1406   54.0969   11.2972 C   0  0  0  0  0  0  0  0  0  0  0  0
   16.7371   54.6309   12.6738 C   0  0  0  0  0  0  0  0  0  0  0  0
   16.1549   53.5846   13.4817 N   0  0  0  0  0  0  0  0  0  0  0  0
   16.7088   53.1232   14.6920 C   0  0  0  0  0  0  0  0  0  0  0  0
   17.8448   53.5954   15.0279 O   0  0  0  0  0  0  0  0  0  0  0  0
   16.0271   52.1517   15.5319 C   0  0  0  0  0  0  0  0  0  0  0  0
   14.7281   51.7382   15.2751 C   0  0  0  0  0  0  0  0  0  0  0  0
   14.0703   50.8197   16.0609 C   0  0  0  0  0  0  0  0  0  0  0  0
   14.7359   50.2837   17.1583 C   0  0  0  0  0  0  0  0  0  0  0  0
   14.0589   49.3289   17.9790 N   0  0  0  0  0  0  0  0  0  0  0  0
   14.6320   48.6350   18.9746 C   0  0  0  0  0  0  0  0  0  0  0  0
   13.6423   47.8199   19.5209 C   0  0  0  0  0  0  0  0  0  0  0  0
   12.4904   48.0830   18.7931 C   0  0  0  0  0  0  0  0  0  0  0  0
   12.7824   49.0055   17.8645 N   0  0  0  0  0  0  0  0  0  0  0  0
   15.9856   50.6842   17.4018 N   0  0  0  0  0  0  0  0  0  0  0  0
   16.6392   51.5950   16.6235 C   0  0  0  0  0  0  0  0  0  0  0  0
   15.8569   55.7918   12.4874 C   0  0  0  0  0  0  0  0  0  0  0  0
   14.4832   55.7025   12.3969 C   0  0  0  0  0  0  0  0  0  0  0  0
   13.7500   56.8570   12.2219 C   0  0  0  0  0  0  0  0  0  0  0  0
   14.3488   58.1107   12.1332 C   0  0  0  0  0  0  0  0  0  0  0  0
   13.5625   59.2938   11.9513 C   0  0  0  0  0  0  0  0  0  0  0  0
   12.9059   60.2471   11.7965 N   0  0  0  0  0  0  0  0  0  0  0  0
   15.7221   58.2039   12.2232 C   0  0  0  0  0  0  0  0  0  0  0  0
   16.4448   57.0372   12.3988 C   0  0  0  0  0  0  0  0  0  0  0  0
  1  2  1  0
  2  3  1  0
  3  4  1  0
  4  5  2  0
  4  6  1  0
  6  7  2  0
  7  8  1  0
  8  9  2  0
  9 10  1  0
 10 11  1  0
 11 12  2  0
 12 13  1  0
 13 14  2  0
  9 15  1  0
 15 16  2  0
  2 17  1  0
 17 18  2  0
 18 19  1  0
 19 20  2  0
 20 21  1  0
 21 22  3  0
 20 23  1  0
 23 24  2  0
 16  6  1  0
 24 17  1  0
 14 10  1  0
M  END
$$$$
