
     RDKit          3D

 34 38  0  0  0  0  0  0  0  0999 V2000
   11.4361   65.2824   12.0849 C   0  0  0  0  0  0  0  0  0  0  0  0
   11.6276   63.8168   12.0125 C   0  0  0  0  0  0  0  0  0  0  0  0
   10.7460   63.0459   11.2974 C   0  0  0  0  0  0  0  0  0  0  0  0
   10.9099   61.6533   11.2153 C   0  0  0  0  0  0  0  0  0  0  0  0
   11.9375   60.9915   11.8302 C   0  0  0  0  0  0  0  0  0  0  0  0
   12.1569   59.5719   11.7701 C   0  0  0  0  0  0  0  0  0  0  0  0
   11.2273   58.6981   11.3708 O   0  0  0  0  0  0  0  0  0  0  0  0
   11.6873   57.4828   11.4119 C   0  0  0  0  0  0  0  0  0  0  0  0
   12.9512   57.5059   11.8442 N   0  0  0  0  0  0  0  0  0  0  0  0
   13.2371   58.8160   12.0661 C   0  0  0  0  0  0  0  0  0  0  0  0
   14.5241   59.2671   12.5551 C   0  0  0  0  0  0  0  0  0  0  0  0
   15.2499   59.9954   11.8241 O   0  0  0  0  0  0  0  0  0  0  0  0
   14.9305   58.8674   13.8596 N   0  0  0  0  0  0  0  0  0  0  0  0
   14.1228   58.2425   14.8639 C   0  0  0  0  0  0  0  0  0  0  0  0
   14.8155   58.4316   16.1819 C   0  0  0  0  0  0  0  0  0  0  0  0
   15.9908   59.2959   15.8606 C   0  0  0  0  0  0  0  0  0  0  0  0
   16.2454   59.0316   14.4102 C   0  0  1  0  0  0  0  0  0  0  0  0
   17.1050   57.8303   14.2374 C   0  0  0  0  0  0  0  0  0  0  0  0
   16.8029   56.6513   13.7092 N   0  0  0  0  0  0  0  0  0  0  0  0
   17.8886   55.8195   13.7429 C   0  0  0  0  0  0  0  0  0  0  0  0
   17.9456   54.4541   13.2568 C   0  0  0  0  0  0  0  0  0  0  0  0
   18.1559   53.4150   14.1717 C   0  0  0  0  0  0  0  0  0  0  0  0
   18.2148   52.1030   13.7435 C   0  0  0  0  0  0  0  0  0  0  0  0
   18.0707   51.7647   12.4157 C   0  0  0  0  0  0  0  0  0  0  0  0
   17.8641   52.7808   11.5140 C   0  0  0  0  0  0  0  0  0  0  0  0
   17.8033   54.1141   11.9390 C   0  0  0  0  0  0  0  0  0  0  0  0
   17.5800   55.2026   10.9491 C   0  0  0  0  0  0  0  0  0  0  0  0
   16.4112   55.8661   11.3511 F   0  0  0  0  0  0  0  0  0  0  0  0
   18.5698   56.1636   10.9680 F   0  0  0  0  0  0  0  0  0  0  0  0
   17.3045   54.7215    9.6851 F   0  0  0  0  0  0  0  0  0  0  0  0
   18.8352   56.5722   14.3158 N   0  0  0  0  0  0  0  0  0  0  0  0
   18.3745   57.7497   14.6050 O   0  0  0  0  0  0  0  0  0  0  0  0
   12.8232   61.7973   12.5532 C   0  0  0  0  0  0  0  0  0  0  0  0
   12.6667   63.1635   12.6369 C   0  0  0  0  0  0  0  0  0  0  0  0
  1  2  1  0
  2  3  2  0
  3  4  1  0
  4  5  2  0
  5  6  1  0
  6  7  1  0
  7  8  1  0
  8  9  2  0
  9 10  1  0
 10 11  1  0
 11 12  2  0
 11 13  1  0
 13 14  1  0
 14 15  1  0
 15 16  1  0
 16 17  1  0
 17 18  1  1
 18 19  2  0
 19 20  1  0
 20 21  1  0
 21 22  2  0
 22 23  1  0
 23 24  2  0
 24 25  1  0
 25 26  2  0
 26 27  1  0
 27 28  1  0
 27 29  1  0
 27 30  1  0
 20 31  2  0
 31 32  1  0
  5 33  1  0
 33 34  2  0
 34  2  1  0
 10  6  2  0
 17 13  1  0
 32 18  1  0
 26 21  1  0
M  END
$$$$
