
     RDKit          3D

 25 27  0  0  0  0  0  0  0  0999 V2000
   15.7368   54.3409   12.8487 O   0  0  0  0  0  0  0  0  0  0  0  0
   15.6348   54.7326   14.0652 C   0  0  0  0  0  0  0  0  0  0  0  0
   15.2009   53.7955   15.0809 C   0  0  0  0  0  0  0  0  0  0  0  0
   15.1686   52.4008   14.6734 N   0  0  0  0  0  0  0  0  0  0  0  0
   16.3337   51.9815   14.0281 C   0  0  0  0  0  0  0  0  0  0  0  0
   17.0292   50.7770   14.5107 C   0  0  0  0  0  0  0  0  0  0  0  0
   16.4820   50.1541   15.6724 N   0  0  0  0  0  0  0  0  0  0  0  0
   16.8299   48.8371   16.0153 C   0  0  0  0  0  0  0  0  0  0  0  0
   17.5942   48.1002   15.3356 O   0  0  0  0  0  0  0  0  0  0  0  0
   16.2482   48.3148   17.2592 C   0  0  0  0  0  0  0  0  0  0  0  0
   14.8667   48.0923   17.2402 C   0  0  0  0  0  0  0  0  0  0  0  0
   14.2090   47.5812   18.3322 C   0  0  0  0  0  0  0  0  0  0  0  0
   14.9108   47.2735   19.4846 C   0  0  0  0  0  0  0  0  0  0  0  0
   16.2678   47.5062   19.4653 C   0  0  0  0  0  0  0  0  0  0  0  0
   16.9546   48.0176   18.3861 C   0  0  0  0  0  0  0  0  0  0  0  0
   18.2897   48.2436   18.3834 F   0  0  0  0  0  0  0  0  0  0  0  0
   15.5151   50.8680   16.4992 C   0  0  0  0  0  0  0  0  0  0  0  0
   14.5139   51.5259   15.5226 C   0  0  0  0  0  0  0  0  0  0  0  0
   15.9794   56.0919   14.2570 N   0  0  0  0  0  0  0  0  0  0  0  0
   15.9580   57.0483   13.1529 C   0  0  0  0  0  0  0  0  0  0  0  0
   14.5958   57.6022   13.0038 C   0  0  0  0  0  0  0  0  0  0  0  0
   13.4944   57.2231   13.7813 C   0  0  0  0  0  0  0  0  0  0  0  0
   12.4088   57.9580   13.3476 C   0  0  0  0  0  0  0  0  0  0  0  0
   12.8839   58.7434   12.3384 C   0  0  0  0  0  0  0  0  0  0  0  0
   14.1597   58.4989   12.1778 O   0  0  0  0  0  0  0  0  0  0  0  0
  1  2  2  0
  2  3  1  0
  3  4  1  0
  4  5  1  0
  5  6  1  0
  6  7  1  0
  7  8  1  0
  8  9  2  0
  8 10  1  0
 10 11  2  0
 11 12  1  0
 12 13  2  0
 13 14  1  0
 14 15  2  0
 15 16  1  0
  7 17  1  0
 17 18  1  0
  2 19  1  0
 19 20  1  0
 20 21  1  0
 21 22  2  0
 22 23  1  0
 23 24  2  0
 24 25  1  0
 18  4  1  0
 25 21  1  0
 15 10  1  0
M  END
$$$$
