
     RDKit          3D

 23 24  0  0  0  0  0  0  0  0999 V2000
   30.2599   82.7160   52.2759 C   0  0  0  0  0  0  0  0  0  0  0  0
   31.6653   82.6788   51.6709 C   0  0  0  0  0  0  0  0  0  0  0  0
   31.6008   82.3933   50.2297 C   0  0  0  0  0  0  0  0  0  0  0  0
   30.5425   82.5720   49.4504 O   0  0  0  0  0  0  0  0  0  0  0  0
   30.7988   82.2288   48.2271 N   0  0  0  0  0  0  0  0  0  0  0  0
   32.0941   81.7981   48.1841 C   0  0  0  0  0  0  0  0  0  0  0  0
   32.8004   81.3119   46.9754 C   0  0  0  0  0  0  0  0  0  0  0  0
   32.6198   81.8962   49.4502 C   0  0  0  0  0  0  0  0  0  0  0  0
   33.9329   81.5505   49.8321 N   0  0  0  0  0  0  0  0  0  0  0  0
   34.5512   82.0652   51.0260 C   0  0  0  0  0  0  0  0  0  0  0  0
   33.8456   82.8298   51.7084 O   0  0  0  0  0  0  0  0  0  0  0  0
   35.9397   81.6937   51.3969 C   0  0  0  0  0  0  0  0  0  0  0  0
   36.0133   80.5797   52.3623 C   0  0  0  0  0  0  0  0  0  0  0  0
   35.0665   80.4708   53.3899 C   0  0  0  0  0  0  0  0  0  0  0  0
   35.1331   79.4316   54.2947 C   0  0  0  0  0  0  0  0  0  0  0  0
   36.1231   78.4612   54.2325 C   0  0  0  0  0  0  0  0  0  0  0  0
   37.0427   78.5905   53.2124 C   0  0  0  0  0  0  0  0  0  0  0  0
   36.9979   79.6171   52.2979 C   0  0  0  0  0  0  0  0  0  0  0  0
   37.9398   79.7098   51.2898 O   0  0  0  0  0  0  0  0  0  0  0  0
   39.1037   78.8708   51.3475 C   0  0  0  0  0  0  0  0  0  0  0  0
   36.6058   82.8817   51.8648 N   0  0  0  0  0  0  0  0  0  0  0  0
   37.0952   82.7618   53.2143 C   0  0  0  0  0  0  0  0  0  0  0  0
   37.5958   83.3800   50.9509 C   0  0  0  0  0  0  0  0  0  0  0  0
  1  2  1  0
  2  3  1  0
  3  4  1  0
  4  5  1  0
  5  6  2  0
  6  7  1  0
  6  8  1  0
  8  9  1  0
  9 10  1  0
 10 11  2  0
 10 12  1  0
 12 13  1  0
 13 14  2  0
 14 15  1  0
 15 16  2  0
 16 17  1  0
 17 18  2  0
 18 19  1  0
 19 20  1  0
 12 21  1  0
 21 22  1  0
 21 23  1  0
  8  3  2  0
 18 13  1  0
M  END
$$$$
