
     RDKit          3D

 21 24  0  0  0  0  0  0  0  0999 V2000
   14.8503   99.7299   49.3191 C   0  0  0  0  0  0  0  0  0  0  0  0
   15.3354  100.2361   50.6377 C   0  0  0  0  0  0  0  0  0  0  0  0
   16.5574  100.8503   50.7961 C   0  0  0  0  0  0  0  0  0  0  0  0
   16.9582  101.3056   52.0329 C   0  0  0  0  0  0  0  0  0  0  0  0
   16.1605  101.1613   53.1369 C   0  0  0  0  0  0  0  0  0  0  0  0
   16.3348  101.5186   54.4244 N   0  0  0  0  0  0  0  0  0  0  0  0
   15.2489  101.1483   55.1122 C   0  0  0  0  0  0  0  0  0  0  0  0
   14.3937  100.5504   54.2199 C   0  0  0  0  0  0  0  0  0  0  0  0
   13.1078   99.9645   54.4949 C   0  0  0  0  0  0  0  0  0  0  0  0
   12.3398   99.7326   53.4733 O   0  0  0  0  0  0  0  0  0  0  0  0
   12.5654   99.6071   55.7396 N   0  0  0  0  0  0  0  0  0  0  0  0
   11.2459   99.0516   55.9488 C   0  0  0  0  0  0  0  0  0  0  0  0
   11.4103   98.3001   57.2528 C   0  0  0  0  0  0  0  0  0  0  0  0
   12.2655   99.2256   58.0529 C   0  0  0  0  0  0  0  0  0  0  0  0
   13.2316   99.7373   57.0205 C   0  0  0  0  0  0  0  0  0  0  0  0
   12.8680   98.6099   59.1420 O   0  0  0  0  0  0  0  0  0  0  0  0
   11.7333   98.4332   59.9686 C   0  0  0  0  0  0  0  0  0  0  0  0
   10.9273   99.6887   59.6902 C   0  0  0  0  0  0  0  0  0  0  0  0
   11.5614  100.2856   58.5971 O   0  0  0  0  0  0  0  0  0  0  0  0
   14.9485  100.5509   52.9768 N   0  0  0  0  0  0  0  0  0  0  0  0
   14.5572  100.1073   51.7658 C   0  0  0  0  0  0  0  0  0  0  0  0
  1  2  1  0
  2  3  1  0
  3  4  2  0
  4  5  1  0
  5  6  2  0
  6  7  1  0
  7  8  2  0
  8  9  1  0
  9 10  2  0
  9 11  1  0
 11 12  1  0
 12 13  1  0
 13 14  1  0
 14 15  1  0
 14 16  1  0
 16 17  1  0
 17 18  1  0
 18 19  1  0
  8 20  1  0
 20 21  1  0
 21  2  2  0
 20  5  1  0
 15 11  1  0
 19 14  1  0
M  END
$$$$
