
     RDKit          3D

 25 27  0  0  0  0  0  0  0  0999 V2000
   13.9833   95.2357   62.1752 O   0  0  0  0  0  0  0  0  0  0  0  0
   12.7877   95.2447   61.7895 C   0  0  0  0  0  0  0  0  0  0  0  0
   11.8732   94.3396   62.3869 N   0  0  0  0  0  0  0  0  0  0  0  0
   12.1859   93.7825   63.6609 C   0  0  0  0  0  0  0  0  0  0  0  0
   12.5915   92.3348   63.6095 C   0  0  0  0  0  0  0  0  0  0  0  0
   13.9204   92.2625   64.0282 O   0  0  0  0  0  0  0  0  0  0  0  0
   10.9818   93.9783   64.5633 C   0  0  0  0  0  0  0  0  0  0  0  0
    9.7849   93.7386   63.9293 O   0  0  0  0  0  0  0  0  0  0  0  0
   12.4011   96.1957   60.7372 C   0  0  0  0  0  0  0  0  0  0  0  0
   11.1009   96.9265   61.0941 C   0  0  0  0  0  0  0  0  0  0  0  0
   10.6231   97.6161   59.8620 C   0  0  0  0  0  0  0  0  0  0  0  0
   11.6964   98.2487   59.1177 N   0  0  0  0  0  0  0  0  0  0  0  0
   11.6014   99.0393   58.0604 C   0  0  0  0  0  0  0  0  0  0  0  0
   10.1562   99.5864   57.2066 Cl  0  0  0  0  0  0  0  0  0  0  0  0
   12.8580   99.4306   57.6527 C   0  0  0  0  0  0  0  0  0  0  0  0
   13.2521  100.2915   56.5455 C   0  0  0  0  0  0  0  0  0  0  0  0
   12.3369  100.8704   55.7160 C   0  0  0  0  0  0  0  0  0  0  0  0
   12.7416  101.6800   54.6773 C   0  0  0  0  0  0  0  0  0  0  0  0
   14.0627  101.8800   54.5088 N   0  0  0  0  0  0  0  0  0  0  0  0
   15.0003  101.3384   55.2908 C   0  0  0  0  0  0  0  0  0  0  0  0
   14.5890  100.5204   56.3401 C   0  0  0  0  0  0  0  0  0  0  0  0
   13.7243   98.8381   58.5154 C   0  0  0  0  0  0  0  0  0  0  0  0
   15.4934   98.9824   58.4807 Cl  0  0  0  0  0  0  0  0  0  0  0  0
   12.9855   98.1105   59.4152 C   0  0  0  0  0  0  0  0  0  0  0  0
   13.4385   97.2831   60.5530 C   0  0  0  0  0  0  0  0  0  0  0  0
  1  2  2  0
  2  3  1  0
  3  4  1  0
  4  5  1  0
  5  6  1  0
  4  7  1  0
  7  8  1  0
  2  9  1  0
  9 10  1  0
 10 11  1  0
 11 12  1  0
 12 13  1  0
 13 14  1  0
 13 15  2  0
 15 16  1  0
 16 17  2  0
 17 18  1  0
 18 19  2  0
 19 20  1  0
 20 21  2  0
 15 22  1  0
 22 23  1  0
 22 24  2  0
 24 25  1  0
 25  9  1  0
 24 12  1  0
 21 16  1  0
M  END
$$$$
