
     RDKit          3D

 25 28  0  0  0  0  0  0  0  0999 V2000
   36.4479   79.3839   52.4545 O   0  0  0  0  0  0  0  0  0  0  0  0
   36.7208   80.6146   52.2226 C   0  0  0  0  0  0  0  0  0  0  0  0
   35.8147   81.3624   51.3530 C   0  0  0  0  0  0  0  0  0  0  0  0
   36.1958   81.9725   50.1831 C   0  0  0  0  0  0  0  0  0  0  0  0
   35.2802   82.6687   49.4041 C   0  0  0  0  0  0  0  0  0  0  0  0
   33.9613   82.7703   49.7789 C   0  0  0  0  0  0  0  0  0  0  0  0
   33.5805   82.1539   50.9595 C   0  0  0  0  0  0  0  0  0  0  0  0
   32.1964   82.2898   51.3117 N   0  0  0  0  0  0  0  0  0  0  0  0
   31.6577   82.3822   52.5251 C   0  0  0  0  0  0  0  0  0  0  0  0
   30.2891   82.5008   52.4379 C   0  0  0  0  0  0  0  0  0  0  0  0
   29.9673   82.4809   51.1096 C   0  0  0  0  0  0  0  0  0  0  0  0
   31.1617   82.3497   50.4375 C   0  0  0  0  0  0  0  0  0  0  0  0
   34.4918   81.4624   51.7323 C   0  0  0  0  0  0  0  0  0  0  0  0
   37.8701   81.1496   52.8236 N   0  0  0  0  0  0  0  0  0  0  0  0
   38.7214   80.4573   53.7681 C   0  0  0  0  0  0  0  0  0  0  0  0
   40.1141   81.0111   53.5313 C   0  0  0  0  0  0  0  0  0  0  0  0
   40.7195   80.1796   52.5621 O   0  0  0  0  0  0  0  0  0  0  0  0
   39.8818   82.3787   52.9388 C   0  0  0  0  0  0  0  0  0  0  0  0
   40.3452   83.4627   53.6741 N   0  0  0  0  0  0  0  0  0  0  0  0
   40.9147   83.3030   54.9467 C   0  0  0  0  0  0  0  0  0  0  0  0
   41.8516   84.4617   55.3171 C   0  0  0  0  0  0  0  0  0  0  0  0
   41.2559   85.6914   55.1256 O   0  0  0  0  0  0  0  0  0  0  0  0
   40.5134   85.7892   53.9784 C   0  0  0  0  0  0  0  0  0  0  0  0
   40.8111   84.6269   53.0149 C   0  0  0  0  0  0  0  0  0  0  0  0
   38.4024   82.4744   52.5991 C   0  0  0  0  0  0  0  0  0  0  0  0
  1  2  2  0
  2  3  1  0
  3  4  2  0
  4  5  1  0
  5  6  2  0
  6  7  1  0
  7  8  1  0
  8  9  1  0
  9 10  2  0
 10 11  1  0
 11 12  2  0
  7 13  2  0
  2 14  1  0
 14 15  1  0
 15 16  1  0
 16 17  1  0
 16 18  1  0
 18 19  1  0
 19 20  1  0
 20 21  1  0
 21 22  1  0
 22 23  1  0
 23 24  1  0
 18 25  1  0
 13  3  1  0
 25 14  1  0
 12  8  1  0
 24 19  1  0
M  END
$$$$
