
     RDKit          3D

 35 40  0  0  0  0  0  0  0  0999 V2000
   11.9263   90.5403   65.2181 C   0  0  0  0  0  3  0  0  0  0  0  0
   12.5030   91.4160   64.7181 N   0  0  0  0  0  4  0  0  0  0  0  0
   13.2001   92.4804   64.1377 C   0  0  0  0  0  0  0  0  0  0  0  0
   14.5661   92.3612   63.9155 C   0  0  0  0  0  0  0  0  0  0  0  0
   15.2368   93.4028   63.3500 C   0  0  0  0  0  0  0  0  0  0  0  0
   14.5175   94.5572   63.0138 C   0  0  0  0  0  0  0  0  0  0  0  0
   13.1642   94.6810   63.2317 C   0  0  0  0  0  0  0  0  0  0  0  0
   12.3866   95.8656   62.8546 C   0  0  2  0  0  0  0  0  0  0  0  0
   11.6250   95.6252   61.5629 C   0  0  0  0  0  0  0  0  0  0  0  0
   12.5057   95.8262   60.4201 N   0  0  0  0  0  0  0  0  0  0  0  0
   11.7486   95.5701   59.2118 C   0  0  0  0  0  0  0  0  0  0  0  0
   11.8179   96.7588   58.2777 C   0  0  0  0  0  0  0  0  0  0  0  0
   11.3001   97.8943   59.0199 N   0  0  0  0  0  0  0  0  0  0  0  0
   10.1653   98.6530   58.6282 C   0  0  0  0  0  0  0  0  0  0  0  0
    9.0428   98.1395   58.7062 O   0  0  0  0  0  0  0  0  0  0  0  0
   10.3270  100.0326   58.1381 C   0  0  0  0  0  0  0  0  0  0  0  0
   11.0799  100.9152   59.1451 C   0  0  0  0  0  0  0  0  0  0  0  0
   11.4777  102.0778   58.2160 C   0  0  0  0  0  0  0  0  0  0  0  0
   11.9735  101.2901   57.0561 C   0  0  0  0  0  0  0  0  0  0  0  0
   12.9058  101.5724   56.1334 N   0  0  0  0  0  0  0  0  0  0  0  0
   13.2451  100.7474   55.1504 C   0  0  0  0  0  0  0  0  0  0  0  0
   14.2368  101.0968   54.2006 N   0  0  0  0  0  0  0  0  0  0  0  0
   14.9506  102.2295   54.1231 C   0  0  0  0  0  0  0  0  0  0  0  0
   15.7855  102.1631   53.0757 N   0  0  0  0  0  0  0  0  0  0  0  0
   15.5927  100.9960   52.5045 N   0  0  0  0  0  0  0  0  0  0  0  0
   14.6598  100.3634   53.1888 N   0  0  0  0  0  0  0  0  0  0  0  0
   12.6048   99.5476   55.0834 N   0  0  0  0  0  0  0  0  0  0  0  0
   11.6600   99.2163   55.9870 C   0  0  0  0  0  0  0  0  0  0  0  0
   11.3165  100.0806   57.0013 C   0  0  0  0  0  0  0  0  0  0  0  0
   12.0388   98.2306   60.2487 C   0  0  0  0  0  0  0  0  0  0  0  0
   13.0693   97.1373   60.4798 C   0  0  1  0  0  0  0  0  0  0  0  0
   13.7845   97.3306   61.7853 C   0  0  0  0  0  0  0  0  0  0  0  0
   13.0027   97.0692   62.8593 O   0  0  0  0  0  0  0  0  0  0  0  0
   12.4826   93.6058   63.8133 C   0  0  0  0  0  0  0  0  0  0  0  0
   11.0365   93.6553   64.0849 C   0  0  0  0  0  0  0  0  0  0  0  0
  1  2  3  0
  2  3  1  0
  3  4  2  0
  4  5  1  0
  5  6  2  0
  6  7  1  0
  8  7  1  6
  8  9  1  0
  9 10  1  0
 10 11  1  0
 11 12  1  0
 12 13  1  0
 13 14  1  0
 14 15  2  0
 14 16  1  0
 16 17  1  0
 17 18  1  0
 18 19  1  0
 19 20  2  0
 20 21  1  0
 21 22  1  0
 22 23  1  0
 23 24  2  0
 24 25  1  0
 25 26  2  0
 21 27  2  0
 27 28  1  0
 28 29  2  0
 13 30  1  0
 31 30  1  1
 31 32  1  0
 32 33  1  0
  7 34  2  0
 34 35  1  0
 34  3  1  0
 33  8  1  0
 31 10  1  0
 29 16  1  0
 29 19  1  0
 26 22  1  0
M  CHG  2   1  -1   2   1
M  END
$$$$
