
     RDKit          3D

 20 23  0  0  0  0  0  0  0  0999 V2000
   11.3229   48.4951   17.8501 F   0  0  0  0  0  0  0  0  0  0  0  0
   12.6076   48.8630   18.0351 C   0  0  0  0  0  0  0  0  0  0  0  0
   13.0363   50.0381   17.4547 C   0  0  0  0  0  0  0  0  0  0  0  0
   14.3376   50.4421   17.6230 C   0  0  0  0  0  0  0  0  0  0  0  0
   15.2110   49.6665   18.3747 C   0  0  0  0  0  0  0  0  0  0  0  0
   14.8045   48.4931   18.9612 C   0  0  0  0  0  0  0  0  0  0  0  0
   15.7290   47.7001   19.7398 C   0  0  0  0  0  0  0  0  0  0  0  0
   15.7052   46.3596   19.9287 N   0  0  0  0  0  0  0  0  0  0  0  0
   16.6879   46.0414   20.6757 O   0  0  0  0  0  0  0  0  0  0  0  0
   17.3990   47.0775   21.0218 C   0  0  0  0  0  0  0  0  0  0  0  0
   18.5946   47.0650   21.8732 C   0  0  0  0  0  0  0  0  0  0  0  0
   19.8211   47.0472   21.1840 N   0  0  0  0  0  0  0  0  0  0  0  0
   19.7982   47.3186   19.7859 C   0  0  0  0  0  0  0  0  0  0  0  0
   21.1125   48.0298   19.4852 C   0  0  1  0  0  0  0  0  0  0  0  0
   20.9485   49.4539   19.9011 C   0  0  0  0  0  0  0  0  0  0  0  0
   20.6369   49.2928   21.3829 C   0  0  0  0  0  0  0  0  0  0  0  0
   20.8757   47.8350   21.7159 C   0  0  2  0  0  0  0  0  0  0  0  0
   21.9615   47.5192   20.6643 C   0  0  0  0  0  0  0  0  0  0  0  0
   16.8144   48.1313   20.4446 N   0  0  0  0  0  0  0  0  0  0  0  0
   13.5038   48.0928   18.7907 C   0  0  0  0  0  0  0  0  0  0  0  0
  1  2  1  0
  2  3  2  0
  3  4  1  0
  4  5  2  0
  5  6  1  0
  6  7  1  0
  7  8  2  0
  8  9  1  0
  9 10  1  0
 10 11  1  0
 11 12  1  0
 12 13  1  0
 14 13  1  1
 14 15  1  0
 15 16  1  0
 17 16  1  6
 17 18  1  0
 10 19  2  0
  6 20  2  0
 20  2  1  0
 19  7  1  0
 17 12  1  0
 18 14  1  0
M  END
$$$$
