
     RDKit          3D

 23 26  0  0  0  0  0  0  0  0999 V2000
   17.6256   50.9122   17.0626 O   0  0  0  0  0  0  0  0  0  0  0  0
   16.3534   51.0252   16.9061 C   0  0  0  0  0  0  0  0  0  0  0  0
   15.5582   50.2066   17.7148 N   0  0  0  0  0  0  0  0  0  0  0  0
   14.1541   50.3393   17.9724 C   0  0  0  0  0  0  0  0  0  0  0  0
   13.6538   49.0142   18.5284 C   0  0  0  0  0  0  0  0  0  0  0  0
   14.8655   48.1465   18.5958 C   0  0  0  0  0  0  0  0  0  0  0  0
   16.0596   49.0519   18.4535 C   0  0  0  0  0  0  0  0  0  0  0  0
   15.8866   51.9626   15.9349 N   0  0  0  0  0  0  0  0  0  0  0  0
   14.9161   51.5549   14.9064 C   0  0  0  0  0  0  0  0  0  0  0  0
   14.4588   52.8534   14.2726 C   0  0  0  0  0  0  0  0  0  0  0  0
   15.7120   53.6872   14.3942 C   0  0  0  0  0  0  0  0  0  0  0  0
   15.3804   55.1661   14.2336 C   0  0  0  0  0  0  0  0  0  0  0  0
   15.2225   55.2315   12.7303 C   0  0  0  0  0  0  0  0  0  0  0  0
   15.5377   56.5205   12.1923 N   0  0  0  0  0  0  0  0  0  0  0  0
   14.4674   57.4200   11.9343 C   0  0  0  0  0  0  0  0  0  0  0  0
   14.6367   58.7512   11.9550 N   0  0  0  0  0  0  0  0  0  0  0  0
   13.6540   59.6369   11.7173 C   0  0  0  0  0  0  0  0  0  0  0  0
   12.3865   59.1755   11.4326 C   0  0  0  0  0  0  0  0  0  0  0  0
   12.1913   57.8113   11.4064 C   0  0  0  0  0  0  0  0  0  0  0  0
   13.2132   56.9721   11.6524 N   0  0  0  0  0  0  0  0  0  0  0  0
   16.1642   54.1480   12.2735 C   0  0  0  0  0  0  0  0  0  0  0  0
   16.6141   53.4825   13.3815 O   0  0  0  0  0  0  0  0  0  0  0  0
   16.2150   53.3505   15.7507 C   0  0  0  0  0  0  0  0  0  0  0  0
  1  2  2  0
  2  3  1  0
  3  4  1  0
  4  5  1  0
  5  6  1  0
  6  7  1  0
  2  8  1  0
  8  9  1  0
  9 10  1  0
 10 11  1  0
 11 12  1  0
 12 13  1  0
 13 14  1  0
 14 15  1  0
 15 16  2  0
 16 17  1  0
 17 18  2  0
 18 19  1  0
 19 20  2  0
 13 21  1  0
 21 22  1  0
 11 23  1  0
  7  3  1  0
 23  8  1  0
 22 11  1  0
 20 15  1  0
M  END
$$$$
