
     RDKit          3D

 22 23  0  0  0  0  0  0  0  0999 V2000
    7.5667   94.3609   63.7515 C   0  0  0  0  0  0  0  0  0  0  0  0
    8.7512   94.9701   64.0773 O   0  0  0  0  0  0  0  0  0  0  0  0
    9.5102   95.3398   62.9236 C   0  0  0  0  0  0  0  0  0  0  0  0
   10.7872   95.9517   63.3400 C   0  0  0  0  0  0  0  0  0  0  0  0
   11.8767   95.9757   62.4052 N   0  0  0  0  0  0  0  0  0  0  0  0
   13.1497   95.4084   62.6235 C   0  0  0  0  0  0  0  0  0  0  0  0
   13.3064   93.9793   62.8201 C   0  0  0  0  0  0  0  0  0  0  0  0
   12.3543   93.1963   62.6943 O   0  0  0  0  0  0  0  0  0  0  0  0
   14.5785   93.3925   63.1733 N   0  0  0  0  0  0  0  0  0  0  0  0
   15.7881   94.1478   63.2253 C   0  0  0  0  0  0  0  0  0  0  0  0
   14.6414   91.9835   63.4848 C   0  0  0  0  0  0  0  0  0  0  0  0
   11.5610   96.5518   61.1375 C   0  0  0  0  0  0  0  0  0  0  0  0
   10.3323   96.2465   60.5880 N   0  0  0  0  0  0  0  0  0  0  0  0
    9.9468   96.7077   59.3934 C   0  0  0  0  0  0  0  0  0  0  0  0
    8.6101   96.3251   58.8703 C   0  0  0  0  0  0  0  0  0  0  0  0
   10.8004   97.4882   58.7326 N   0  0  0  0  0  0  0  0  0  0  0  0
   12.0080   97.8373   59.1845 C   0  0  0  0  0  0  0  0  0  0  0  0
   12.3978   97.3461   60.4378 C   0  0  0  0  0  0  0  0  0  0  0  0
   13.6513   97.8592   60.6471 C   0  0  0  0  0  0  0  0  0  0  0  0
   14.0181   98.6288   59.5753 N   0  0  0  0  0  0  0  0  0  0  0  0
   13.0204   98.6001   58.7155 N   0  0  0  0  0  0  0  0  0  0  0  0
   12.9804   99.2822   57.4248 C   0  0  0  0  0  0  0  0  0  0  0  0
  1  2  1  0
  2  3  1  0
  3  4  1  0
  4  5  1  0
  5  6  1  0
  6  7  1  0
  7  8  2  0
  7  9  1  0
  9 10  1  0
  9 11  1  0
  5 12  1  0
 12 13  2  0
 13 14  1  0
 14 15  1  0
 14 16  2  0
 16 17  1  0
 17 18  2  0
 18 19  1  0
 19 20  2  0
 20 21  1  0
 21 22  1  0
 18 12  1  0
 21 17  1  0
M  END
$$$$
