
     RDKit          3D

 43 48  0  0  0  0  0  0  0  0999 V2000
   14.7898   48.8770   17.2800 C   0  0  0  0  0  0  0  0  0  0  0  0
   15.7699   49.1972   16.3066 O   0  0  0  0  0  0  0  0  0  0  0  0
   15.6289   50.3982   15.6287 C   0  0  0  0  0  0  0  0  0  0  0  0
   14.4085   50.9890   15.3940 C   0  0  0  0  0  0  0  0  0  0  0  0
   14.3130   52.2060   14.7033 C   0  0  0  0  0  0  0  0  0  0  0  0
   15.4273   52.8631   14.2300 C   0  0  0  0  0  0  0  0  0  0  0  0
   15.4280   54.0487   13.5483 O   0  0  0  0  0  0  0  0  0  0  0  0
   16.3847   55.0138   13.4886 C   0  0  0  0  0  0  0  0  0  0  0  0
   17.6816   54.9422   13.8319 N   0  0  0  0  0  0  0  0  0  0  0  0
   18.2854   56.1252   13.6181 C   0  0  0  0  0  0  0  0  0  0  0  0
   17.3766   56.9234   13.1479 O   0  0  0  0  0  0  0  0  0  0  0  0
   16.1978   56.3023   13.0469 C   0  0  0  0  0  0  0  0  0  0  0  0
   14.9998   56.9604   12.5486 C   0  0  0  0  0  0  0  0  0  0  0  0
   14.0249   56.2559   11.8458 C   0  0  0  0  0  0  0  0  0  0  0  0
   12.8896   56.8776   11.3757 C   0  0  0  0  0  0  0  0  0  0  0  0
   12.6703   58.2208   11.5801 C   0  0  0  0  0  0  0  0  0  0  0  0
   11.6979   59.0990   11.2638 N   0  0  0  0  0  0  0  0  0  0  0  0
   12.0058   60.3182   11.7275 C   0  0  0  0  0  0  0  0  0  0  0  0
   11.2420   61.5018   11.6117 N   0  0  0  0  0  0  0  0  0  0  0  0
   11.7318   62.8113   11.8575 C   0  0  0  0  0  0  0  0  0  0  0  0
   11.0829   63.8988   11.3129 C   0  0  0  0  0  0  0  0  0  0  0  0
   11.5676   65.1762   11.5488 C   0  0  0  0  0  0  0  0  0  0  0  0
   10.8292   66.3141   10.9841 C   0  0  0  0  0  0  0  0  0  0  0  0
   10.4087   67.3114   11.9190 N   0  0  0  0  0  0  0  0  0  0  0  0
    9.4884   68.2370   11.3442 C   0  0  0  0  0  0  0  0  0  0  0  0
    8.8851   69.1802   12.3880 C   0  0  0  0  0  0  0  0  0  0  0  0
    8.5036   68.4911   13.5618 N   0  0  0  0  0  0  0  0  0  0  0  0
    8.0562   69.0694   14.7378 C   0  0  0  0  0  0  0  0  0  0  0  0
    8.6939   68.7276   15.8260 O   0  0  0  0  0  0  0  0  0  0  0  0
    7.0168   69.9733   14.9472 N   0  0  0  0  0  0  0  0  0  0  0  0
    6.8906   70.8370   16.0661 C   0  0  0  0  0  0  0  0  0  0  0  0
    5.9412   70.0520   13.9209 C   0  0  0  0  0  0  0  0  0  0  0  0
    8.6156   67.0129   13.4857 C   0  0  0  0  0  0  0  0  0  0  0  0
   10.1122   66.7969   13.1918 C   0  0  0  0  0  0  0  0  0  0  0  0
   12.6897   65.3101   12.3257 C   0  0  0  0  0  0  0  0  0  0  0  0
   13.3436   64.2169   12.8742 C   0  0  0  0  0  0  0  0  0  0  0  0
   12.8368   62.9899   12.6190 N   0  0  0  0  0  0  0  0  0  0  0  0
   13.1910   60.2243   12.3501 N   0  0  0  0  0  0  0  0  0  0  0  0
   13.6152   58.9383   12.2691 C   0  0  0  0  0  0  0  0  0  0  0  0
   14.7553   58.2950   12.7370 C   0  0  0  0  0  0  0  0  0  0  0  0
   16.6616   52.2464   14.4786 C   0  0  0  0  0  0  0  0  0  0  0  0
   16.7518   51.0524   15.1567 C   0  0  0  0  0  0  0  0  0  0  0  0
   17.9695   50.4587   15.3951 F   0  0  0  0  0  0  0  0  0  0  0  0
  1  2  1  0
  2  3  1  0
  3  4  2  0
  4  5  1  0
  5  6  2  0
  6  7  1  0
  7  8  1  0
  8  9  1  0
  9 10  2  0
 10 11  1  0
 11 12  1  0
 12 13  1  0
 13 14  2  0
 14 15  1  0
 15 16  2  0
 16 17  1  0
 17 18  2  0
 18 19  1  0
 19 20  1  0
 20 21  2  0
 21 22  1  0
 22 23  1  0
 23 24  1  0
 24 25  1  0
 25 26  1  0
 26 27  1  0
 27 28  1  0
 28 29  2  0
 28 30  1  0
 30 31  1  0
 30 32  1  0
 27 33  1  0
 33 34  1  0
 22 35  2  0
 35 36  1  0
 36 37  2  0
 18 38  1  0
 38 39  1  0
 39 40  2  0
  6 41  1  0
 41 42  2  0
 42 43  1  0
 42  3  1  0
 12  8  2  0
 40 13  1  0
 39 16  1  0
 37 20  1  0
 34 24  1  0
M  END
$$$$
