
     RDKit          3D

 27 30  0  0  0  0  0  0  0  0999 V2000
   12.9394   95.0002   61.5335 O   0  0  0  0  0  0  0  0  0  0  0  0
   12.1678   95.7091   62.2219 C   0  0  0  0  0  0  0  0  0  0  0  0
   11.8325   96.9882   61.6924 N   0  0  0  0  0  0  0  0  0  0  0  0
   11.9184   97.3184   60.3330 C   0  0  0  0  0  0  0  0  0  0  0  0
   12.6684   96.5518   59.4585 C   0  0  0  0  0  0  0  0  0  0  0  0
   12.8040   96.8002   58.1361 C   0  0  0  0  0  0  0  0  0  0  0  0
   12.1641   97.9018   57.5351 C   0  0  0  0  0  0  0  0  0  0  0  0
   12.1878   98.2729   56.3189 N   0  0  0  0  0  0  0  0  0  0  0  0
   11.6139   99.2609   55.7809 C   0  0  0  0  0  0  0  0  0  0  0  0
   11.4870   99.9638   54.2079 S   0  0  0  0  0  0  0  0  0  0  0  0
   13.0923  100.6554   53.6553 C   0  0  0  0  0  0  0  0  0  0  0  0
   13.3816  100.1928   52.2755 C   0  0  0  0  0  0  0  0  0  0  0  0
   12.4347   99.7462   51.5793 O   0  0  0  0  0  0  0  0  0  0  0  0
   14.6960  100.2592   51.7706 N   0  0  0  0  0  0  0  0  0  0  0  0
   15.7910  100.7242   52.5843 C   0  0  0  0  0  0  0  0  0  0  0  0
   17.0232  100.8205   51.7210 C   0  0  0  0  0  0  0  0  0  0  0  0
   16.7688  101.5297   50.4284 C   0  0  0  0  0  0  0  0  0  0  0  0
   15.5612  101.0457   49.6891 C   0  0  0  0  0  0  0  0  0  0  0  0
   14.9789   99.8569   50.4075 C   0  0  0  0  0  0  0  0  0  0  0  0
   10.7716   99.9334   57.3288 S   0  0  0  0  0  0  0  0  0  0  0  0
   11.4115   98.6540   58.4632 C   0  0  0  0  0  0  0  0  0  0  0  0
   11.2827   98.4047   59.7602 C   0  0  0  0  0  0  0  0  0  0  0  0
   11.6504   95.2292   63.4985 C   0  0  0  0  0  0  0  0  0  0  0  0
   11.8529   94.0177   64.0876 C   0  0  0  0  0  0  0  0  0  0  0  0
   11.1731   93.9874   65.2982 C   0  0  0  0  0  0  0  0  0  0  0  0
   10.5722   95.2387   65.3735 C   0  0  0  0  0  0  0  0  0  0  0  0
   10.8813   95.9181   64.3052 O   0  0  0  0  0  0  0  0  0  0  0  0
  1  2  2  0
  2  3  1  0
  3  4  1  0
  4  5  2  0
  5  6  1  0
  6  7  2  0
  7  8  1  0
  8  9  2  0
  9 10  1  0
 10 11  1  0
 11 12  1  0
 12 13  2  0
 12 14  1  0
 14 15  1  0
 15 16  1  0
 16 17  1  0
 17 18  1  0
 18 19  1  0
  9 20  1  0
 20 21  1  0
 21 22  2  0
  2 23  1  0
 23 24  2  0
 24 25  1  0
 25 26  2  0
 26 27  1  0
 22  4  1  0
 27 23  1  0
 21  7  1  0
 19 14  1  0
M  END
$$$$
