
     RDKit          3D

 38 42  0  0  0  0  0  0  0  0999 V2000
   15.5191  101.2295   48.5798 C   0  0  0  0  0  0  0  0  0  0  0  0
   14.6897  101.1725   49.7261 O   0  0  0  0  0  0  0  0  0  0  0  0
   15.1240  100.6302   50.9142 C   0  0  0  0  0  0  0  0  0  0  0  0
   16.3726  100.0600   51.0107 C   0  0  0  0  0  0  0  0  0  0  0  0
   16.8067   99.5166   52.2039 C   0  0  0  0  0  0  0  0  0  0  0  0
   18.0321   98.9547   52.3064 F   0  0  0  0  0  0  0  0  0  0  0  0
   15.9479   99.5634   53.2980 C   0  0  0  0  0  0  0  0  0  0  0  0
   14.6987  100.1381   53.1874 C   0  0  0  0  0  0  0  0  0  0  0  0
   14.2670  100.6801   51.9951 C   0  0  0  0  0  0  0  0  0  0  0  0
   13.0478  101.2391   51.8923 N   0  0  0  0  0  0  0  0  0  0  0  0
   12.2030  101.2942   52.9373 C   0  0  0  0  0  0  0  0  0  0  0  0
   10.9122  101.8794   52.8498 N   0  0  0  0  0  0  0  0  0  0  0  0
   12.6151  100.7643   54.1172 N   0  0  0  0  0  0  0  0  0  0  0  0
   12.0411  100.6604   55.3033 N   0  0  0  0  0  0  0  0  0  0  0  0
   12.8279  100.0560   56.1894 C   0  0  0  0  0  0  0  0  0  0  0  0
   12.5673   99.7390   57.6357 C   0  0  1  0  0  0  0  0  0  0  0  0
   11.1894  100.1319   58.0145 C   0  0  0  0  0  0  0  0  0  0  0  0
   10.4883   99.2575   58.9981 C   0  0  0  0  0  0  0  0  0  0  0  0
   11.0599   97.9455   59.2571 C   0  0  2  0  0  0  0  0  0  0  0  0
   11.9303   97.7887   60.3804 N   0  0  0  0  0  0  0  0  0  0  0  0
   12.5589   96.6061   60.7678 C   0  0  0  0  0  0  0  0  0  0  0  0
   13.2863   96.0998   59.8493 O   0  0  0  0  0  0  0  0  0  0  0  0
   12.4703   95.9309   62.0491 C   0  0  0  0  0  0  0  0  0  0  0  0
   13.2572   94.8010   62.2872 C   0  0  0  0  0  0  0  0  0  0  0  0
   13.2438   94.1010   63.4683 C   0  0  0  0  0  0  0  0  0  0  0  0
   14.0439   92.9765   63.6707 O   0  0  0  0  0  0  0  0  0  0  0  0
   15.4566   93.0411   63.6084 C   0  0  0  0  0  0  0  0  0  0  0  0
   15.9570   91.7811   63.8367 F   0  0  0  0  0  0  0  0  0  0  0  0
   15.8737   93.8796   64.6265 F   0  0  0  0  0  0  0  0  0  0  0  0
   15.8033   93.5375   62.3668 F   0  0  0  0  0  0  0  0  0  0  0  0
   12.4174   94.5220   64.4792 C   0  0  0  0  0  0  0  0  0  0  0  0
   11.6306   95.6307   64.2754 C   0  0  0  0  0  0  0  0  0  0  0  0
   11.6527   96.3399   63.0615 C   0  0  0  0  0  0  0  0  0  0  0  0
   10.8363   97.4220   62.9561 F   0  0  0  0  0  0  0  0  0  0  0  0
   11.7787   97.4494   58.0280 C   0  0  0  0  0  0  0  0  0  0  0  0
   12.9806   98.3391   57.8634 C   0  0  0  0  0  0  0  0  0  0  0  0
   13.9732   99.7557   55.5301 N   0  0  0  0  0  0  0  0  0  0  0  0
   13.8230  100.1942   54.2738 C   0  0  0  0  0  0  0  0  0  0  0  0
  1  2  1  0
  2  3  1  0
  3  4  2  0
  4  5  1  0
  5  6  1  0
  5  7  2  0
  7  8  1  0
  8  9  2  0
  9 10  1  0
 10 11  2  0
 11 12  1  0
 11 13  1  0
 13 14  1  0
 14 15  2  0
 16 15  1  6
 16 17  1  0
 17 18  1  0
 18 19  1  0
 19 20  1  1
 20 21  1  0
 21 22  2  0
 21 23  1  0
 23 24  2  0
 24 25  1  0
 25 26  1  0
 26 27  1  0
 27 28  1  0
 27 29  1  0
 27 30  1  0
 25 31  2  0
 31 32  1  0
 32 33  2  0
 33 34  1  0
 19 35  1  0
 35 36  1  0
 15 37  1  0
 37 38  2  0
  9  3  1  0
 38 13  1  0
 38  8  1  0
 36 16  1  0
 33 23  1  0
M  END
$$$$
