
     RDKit          3D

 31 34  0  0  0  0  0  0  0  0999 V2000
   10.2206   98.5597   58.1602 O   0  0  0  0  0  0  0  0  0  0  0  0
   10.9512   98.2221   59.1668 C   0  0  0  0  0  0  0  0  0  0  0  0
   12.1658   99.0221   59.4558 C   0  0  0  0  0  0  0  0  0  0  0  0
   12.3093  100.0856   58.6058 O   0  0  0  0  0  0  0  0  0  0  0  0
   12.9377  100.1465   57.3809 C   0  0  0  0  0  0  0  0  0  0  0  0
   13.1767  101.3339   56.7199 C   0  0  0  0  0  0  0  0  0  0  0  0
   13.8222  101.3524   55.4783 C   0  0  0  0  0  0  0  0  0  0  0  0
   14.2313  100.1829   54.8929 C   0  0  0  0  0  0  0  0  0  0  0  0
   14.9090  100.1450   53.6041 C   0  0  0  0  0  0  0  0  0  0  0  0
   15.2650   98.9927   52.9480 C   0  0  0  0  0  0  0  0  0  0  0  0
   15.9130   99.0080   51.7094 C   0  0  0  0  0  0  0  0  0  0  0  0
   16.2207  100.2018   51.0964 C   0  0  0  0  0  0  0  0  0  0  0  0
   15.8666  101.3621   51.7489 C   0  0  0  0  0  0  0  0  0  0  0  0
   15.2276  101.3449   52.9705 C   0  0  0  0  0  0  0  0  0  0  0  0
   13.9744   99.0403   55.5805 N   0  0  0  0  0  0  0  0  0  0  0  0
   13.3638   99.0357   56.7528 N   0  0  0  0  0  0  0  0  0  0  0  0
   10.5266   97.1075   59.9075 N   0  0  0  0  0  0  0  0  0  0  0  0
   10.4687   96.9460   61.3185 C   0  0  0  0  0  0  0  0  0  0  0  0
   11.6844   96.5941   62.0737 C   0  0  0  0  0  0  0  0  0  0  0  0
   11.7612   97.3475   63.2826 O   0  0  0  0  0  0  0  0  0  0  0  0
   11.9910   95.1649   62.3256 C   0  0  0  0  0  0  0  0  0  0  0  0
   13.4402   94.9503   62.1684 N   0  0  0  0  0  0  0  0  0  0  0  0
   14.1154   95.4681   63.3645 C   0  0  0  0  0  0  0  0  0  0  0  0
   14.3932   94.4527   64.4046 C   0  0  0  0  0  0  0  0  0  0  0  0
   13.5811   93.2228   64.3615 C   0  0  0  0  0  0  0  0  0  0  0  0
   13.1683   92.5855   65.4945 C   0  0  0  0  0  0  0  0  0  0  0  0
   12.4184   91.4327   65.3422 C   0  0  0  0  0  0  0  0  0  0  0  0
   12.0921   90.9335   64.0973 C   0  0  0  0  0  0  0  0  0  0  0  0
   12.5215   91.5966   62.9678 C   0  0  0  0  0  0  0  0  0  0  0  0
   13.2560   92.7262   63.0933 C   0  0  0  0  0  0  0  0  0  0  0  0
   13.7847   93.5593   61.9797 C   0  0  0  0  0  0  0  0  0  0  0  0
  1  2  2  0
  2  3  1  0
  3  4  1  0
  4  5  1  0
  5  6  2  0
  6  7  1  0
  7  8  2  0
  8  9  1  0
  9 10  2  0
 10 11  1  0
 11 12  2  0
 12 13  1  0
 13 14  2  0
  8 15  1  0
 15 16  2  0
  2 17  1  0
 17 18  1  0
 18 19  1  0
 19 20  1  0
 19 21  1  0
 21 22  1  0
 22 23  1  0
 23 24  1  0
 24 25  1  0
 25 26  2  0
 26 27  1  0
 27 28  2  0
 28 29  1  0
 29 30  2  0
 30 31  1  0
 16  5  1  0
 31 22  1  0
 14  9  1  0
 30 25  1  0
M  END
$$$$
