
     RDKit          3D

 37 40  0  0  0  0  0  0  0  0999 V2000
   -7.2202   60.8630   31.8331 N   0  0  0  0  0  0  0  0  0  0  0  0
   -6.8025   60.5091   30.6928 C   0  0  0  0  0  0  0  0  0  0  0  0
   -5.6957   61.1955   30.1415 N   0  0  0  0  0  0  0  0  0  0  0  0
   -4.5180   61.6423   30.7872 C   0  0  0  0  0  0  0  0  0  0  0  0
   -3.2490   60.9467   30.5166 C   0  0  0  0  0  0  0  0  0  0  0  0
   -2.2347   61.4901   29.7119 C   0  0  0  0  0  0  0  0  0  0  0  0
   -1.0486   60.8288   29.4687 C   0  0  0  0  0  0  0  0  0  0  0  0
   -0.8086   59.5871   30.0154 C   0  0  0  0  0  0  0  0  0  0  0  0
    0.4589   58.8621   29.7673 C   0  0  0  0  0  0  0  0  0  0  0  0
    0.3889   57.6729   30.4626 F   0  0  0  0  0  0  0  0  0  0  0  0
    0.5784   58.5468   28.4283 F   0  0  0  0  0  0  0  0  0  0  0  0
    1.5732   59.5546   30.1606 F   0  0  0  0  0  0  0  0  0  0  0  0
   -1.7960   59.0342   30.8113 C   0  0  0  0  0  0  0  0  0  0  0  0
   -2.9791   59.6981   31.0516 C   0  0  0  0  0  0  0  0  0  0  0  0
   -7.4335   59.4207   29.9769 N   0  0  0  0  0  0  0  0  0  0  0  0
   -8.7895   59.0869   30.1543 C   0  0  0  0  0  0  0  0  0  0  0  0
   -9.7769   59.6652   29.3870 C   0  0  0  0  0  0  0  0  0  0  0  0
  -11.1089   59.3276   29.6323 C   0  0  0  0  0  0  0  0  0  0  0  0
  -11.4603   58.4411   30.6114 C   0  0  0  0  0  0  0  0  0  0  0  0
  -12.7646   58.0794   30.8866 O   0  0  0  0  0  0  0  0  0  0  0  0
  -13.8827   58.4246   30.1097 C   0  0  0  0  0  0  0  0  0  0  0  0
  -15.0923   57.7605   30.7821 C   0  0  0  0  0  0  0  0  0  0  0  0
  -16.0932   58.8369   31.0311 C   0  0  0  0  0  0  0  0  0  0  0  0
  -17.4575   58.4135   30.8941 N   0  0  0  0  0  0  0  0  0  0  0  0
  -17.9266   58.7408   29.5652 C   0  0  0  0  0  0  0  0  0  0  0  0
  -18.2686   60.2319   29.5839 C   0  0  0  0  0  0  0  0  0  0  0  0
  -19.6298   60.3825   30.1428 C   0  0  0  0  0  0  0  0  0  0  0  0
  -20.3887   61.5308   30.1438 C   0  0  0  0  0  0  0  0  0  0  0  0
  -21.5464   61.2684   30.7352 N   0  0  0  0  0  0  0  0  0  0  0  0
  -21.5104   59.9742   31.0982 C   0  0  0  0  0  0  0  0  0  0  0  0
  -20.3604   59.4173   30.7501 N   0  0  0  0  0  0  0  0  0  0  0  0
  -10.4554   57.8589   31.3860 C   0  0  0  0  0  0  0  0  0  0  0  0
  -10.8240   56.9481   32.3854 C   0  0  0  0  0  0  0  0  0  0  0  0
   -9.8623   56.3492   33.1672 C   0  0  0  0  0  0  0  0  0  0  0  0
   -8.5492   56.6693   32.9384 C   0  0  0  0  0  0  0  0  0  0  0  0
   -8.1692   57.5669   31.9553 C   0  0  0  0  0  0  0  0  0  0  0  0
   -9.1305   58.1709   31.1686 C   0  0  0  0  0  0  0  0  0  0  0  0
  1  2  2  0
  2  3  1  0
  3  4  1  0
  4  5  1  0
  5  6  2  0
  6  7  1  0
  7  8  2  0
  8  9  1  0
  9 10  1  0
  9 11  1  0
  9 12  1  0
  8 13  1  0
 13 14  2  0
  2 15  1  0
 15 16  1  0
 16 17  2  0
 17 18  1  0
 18 19  2  0
 19 20  1  0
 20 21  1  0
 21 22  1  0
 22 23  1  0
 23 24  1  0
 24 25  1  0
 25 26  1  0
 26 27  1  0
 27 28  2  0
 28 29  1  0
 29 30  1  0
 30 31  2  0
 19 32  1  0
 32 33  2  0
 33 34  1  0
 34 35  2  0
 35 36  1  0
 36 37  2  0
 14  5  1  0
 37 16  1  0
 31 27  1  0
 37 32  1  0
M  END
$$$$
