
     RDKit          3D

 35 39  0  0  0  0  0  0  0  0999 V2000
    9.8852  103.7229   56.6333 C   0  0  0  0  0  0  0  0  0  0  0  0
    9.6396  102.6064   57.6121 C   0  0  0  0  0  0  0  0  0  0  0  0
    8.4664  102.6843   58.3623 C   0  0  0  0  0  0  0  0  0  0  0  0
    8.2170  101.6740   59.2625 C   0  0  0  0  0  0  0  0  0  0  0  0
    9.1301  100.6558   59.3684 C   0  0  0  0  0  0  0  0  0  0  0  0
   10.2957  100.5845   58.6184 C   0  0  0  0  0  0  0  0  0  0  0  0
   11.2326   99.4781   58.7675 C   0  0  0  0  0  0  0  0  0  0  0  0
   12.3203   99.4727   57.9772 N   0  0  0  0  0  0  0  0  0  0  0  0
   13.2520   98.4778   58.0543 C   0  0  0  0  0  0  0  0  0  0  0  0
   14.3992   98.4571   57.2528 N   0  0  0  0  0  0  0  0  0  0  0  0
   14.8011   99.5623   56.4634 C   0  0  0  0  0  0  0  0  0  0  0  0
   14.3143  100.8219   56.7558 C   0  0  0  0  0  0  0  0  0  0  0  0
   14.7057  101.8930   55.9825 C   0  0  0  0  0  0  0  0  0  0  0  0
   15.5409  101.7136   54.9692 N   0  0  0  0  0  0  0  0  0  0  0  0
   16.0498  100.4978   54.6380 C   0  0  0  0  0  0  0  0  0  0  0  0
   15.6661   99.4377   55.3984 C   0  0  0  0  0  0  0  0  0  0  0  0
   16.1334   98.1814   55.1301 F   0  0  0  0  0  0  0  0  0  0  0  0
   12.9850   97.4922   58.9974 C   0  0  0  0  0  0  0  0  0  0  0  0
   13.7598   96.3610   59.2903 C   0  0  0  0  0  0  0  0  0  0  0  0
   13.1238   95.6719   60.2800 C   0  0  0  0  0  0  0  0  0  0  0  0
   11.9686   96.3902   60.5796 C   0  0  0  0  0  0  0  0  0  0  0  0
   11.9066   97.4846   59.7914 N   0  0  0  0  0  0  0  0  0  0  0  0
   11.0553   98.4876   59.6505 N   0  0  0  0  0  0  0  0  0  0  0  0
   11.0266   95.9469   61.6084 C   0  0  0  0  0  0  0  0  0  0  0  0
   11.6056   95.1486   62.7293 C   0  0  0  0  0  0  0  0  0  0  0  0
   12.9852   94.7224   62.4530 N   0  0  0  0  0  0  0  0  0  0  0  0
   13.9059   94.6175   63.4786 C   0  0  0  0  0  0  0  0  0  0  0  0
   13.5215   94.9192   64.6687 O   0  0  0  0  0  0  0  0  0  0  0  0
   15.2885   94.1916   63.3313 C   0  0  0  0  0  0  0  0  0  0  0  0
   15.4895   92.6952   63.2152 C   0  0  0  0  0  0  0  0  0  0  0  0
   14.3692   92.1815   62.2991 C   0  0  0  0  0  0  0  0  0  0  0  0
   15.3748   91.9672   64.5115 C   0  0  0  0  0  0  0  0  0  0  0  0
   16.6921   92.3721   62.6200 O   0  0  0  0  0  0  0  0  0  0  0  0
   13.3555   94.4261   61.0739 C   0  0  0  0  0  0  0  0  0  0  0  0
   10.5103  101.5936   57.7440 N   0  0  0  0  0  0  0  0  0  0  0  0
  1  2  1  0
  2  3  2  0
  3  4  1  0
  4  5  2  0
  5  6  1  0
  6  7  1  0
  7  8  1  0
  8  9  2  0
  9 10  1  0
 10 11  1  0
 11 12  2  0
 12 13  1  0
 13 14  2  0
 14 15  1  0
 15 16  2  0
 16 17  1  0
  9 18  1  0
 18 19  2  0
 19 20  1  0
 20 21  2  0
 21 22  1  0
 22 23  1  0
 21 24  1  0
 24 25  1  0
 25 26  1  0
 26 27  1  0
 27 28  2  0
 27 29  1  0
 29 30  1  0
 30 31  1  0
 30 32  1  0
 30 33  1  0
 26 34  1  0
  6 35  2  0
 35  2  1  0
 23  7  2  0
 16 11  1  0
 22 18  1  0
 34 20  1  0
M  END
$$$$
