
     RDKit          3D

 21 23  0  0  0  0  0  0  0  0999 V2000
   13.2238   94.0584   64.0035 N   0  0  0  0  0  0  0  0  0  0  0  0
   12.9342   94.8326   63.1535 C   0  0  0  0  0  0  0  0  0  0  0  0
   12.5925   95.7811   62.1480 C   0  0  0  0  0  0  0  0  0  0  0  0
   13.6072   96.3484   61.3691 C   0  0  0  0  0  0  0  0  0  0  0  0
   13.2949   97.2510   60.4191 C   0  0  0  0  0  0  0  0  0  0  0  0
   11.9530   97.6407   60.1901 C   0  0  0  0  0  0  0  0  0  0  0  0
   11.7837   98.5475   59.2121 O   0  0  0  0  0  0  0  0  0  0  0  0
   12.2651   98.7213   57.9561 C   0  0  0  0  0  0  0  0  0  0  0  0
   11.5956   99.8094   57.1605 C   0  0  0  0  0  0  0  0  0  0  0  0
   11.9981   99.5067   55.3910 S   0  0  0  0  0  0  0  0  0  0  0  0
   13.5297  100.3813   55.0824 C   0  0  0  0  0  0  0  0  0  0  0  0
   14.2018  101.1415   55.9568 N   0  0  0  0  0  0  0  0  0  0  0  0
   15.2706  101.5864   55.3295 N   0  0  0  0  0  0  0  0  0  0  0  0
   15.2662  101.0971   54.0439 C   0  0  0  0  0  0  0  0  0  0  0  0
   16.1329  101.2573   52.9910 C   0  0  0  0  0  0  0  0  0  0  0  0
   15.9125  100.6500   51.7388 C   0  0  0  0  0  0  0  0  0  0  0  0
   14.7716   99.8894   51.6520 C   0  0  0  0  0  0  0  0  0  0  0  0
   13.9134   99.7328   52.7032 C   0  0  0  0  0  0  0  0  0  0  0  0
   14.1676  100.3453   53.9091 N   0  0  0  0  0  0  0  0  0  0  0  0
   10.9570   97.0826   60.9573 C   0  0  0  0  0  0  0  0  0  0  0  0
   11.2926   96.1606   61.9245 C   0  0  0  0  0  0  0  0  0  0  0  0
  1  2  3  0
  2  3  1  0
  3  4  2  0
  4  5  1  0
  5  6  2  0
  6  7  1  0
  7  8  1  0
  8  9  1  0
  9 10  1  0
 10 11  1  0
 11 12  2  0
 12 13  1  0
 13 14  2  0
 14 15  1  0
 15 16  2  0
 16 17  1  0
 17 18  2  0
 18 19  1  0
  6 20  1  0
 20 21  2  0
 21  3  1  0
 19 11  1  0
 19 14  1  0
M  END
$$$$
