
     RDKit          3D

 26 28  0  0  0  0  0  0  0  0999 V2000
   15.0244   99.4647   51.4879 C   0  0  0  0  0  0  0  0  0  0  0  0
   15.3231  100.9201   51.7812 C   0  0  0  0  0  0  0  0  0  0  0  0
   16.7559  101.1778   51.3625 C   0  0  0  0  0  0  0  0  0  0  0  0
   15.1536  101.0905   53.2541 C   0  0  0  0  0  0  0  0  0  0  0  0
   15.7252  101.7614   54.2088 N   0  0  0  0  0  0  0  0  0  0  0  0
   15.3118  101.6719   55.4042 N   0  0  0  0  0  0  0  0  0  0  0  0
   14.3702  100.9755   55.7798 C   0  0  0  0  0  0  0  0  0  0  0  0
   13.7103  100.6986   57.0570 N   0  0  0  0  0  0  0  0  0  0  0  0
   13.0007   99.5193   57.3057 C   0  0  0  0  0  0  0  0  0  0  0  0
   12.9143   98.6545   56.3978 O   0  0  0  0  0  0  0  0  0  0  0  0
   12.3304   99.2309   58.6149 C   0  0  0  0  0  0  0  0  0  0  0  0
   13.2463   99.1306   59.6602 O   0  0  0  0  0  0  0  0  0  0  0  0
   13.3000   97.9935   60.4231 C   0  0  0  0  0  0  0  0  0  0  0  0
   12.1790   97.5390   61.0755 C   0  0  0  0  0  0  0  0  0  0  0  0
   12.2216   96.3969   61.8453 C   0  0  0  0  0  0  0  0  0  0  0  0
   13.4218   95.7226   61.9423 C   0  0  0  0  0  0  0  0  0  0  0  0
   13.5858   94.2264   62.9199 S   0  0  0  0  0  0  0  0  0  0  0  0
   12.0473   93.8962   63.7817 C   0  0  0  0  0  0  0  0  0  0  0  0
   12.2028   92.9713   64.9486 C   0  0  0  0  0  0  0  0  0  0  0  0
   12.4084   91.5386   64.5627 C   0  0  0  0  0  0  0  0  0  0  0  0
   11.5342   91.0758   63.4362 C   0  0  0  0  0  0  0  0  0  0  0  0
   11.5691   92.0556   62.2617 C   0  0  0  0  0  0  0  0  0  0  0  0
   11.0331   93.3612   62.7850 C   0  0  0  0  0  0  0  0  0  0  0  0
   14.5557   96.1638   61.2949 C   0  0  0  0  0  0  0  0  0  0  0  0
   14.4798   97.3021   60.5379 C   0  0  0  0  0  0  0  0  0  0  0  0
   13.8450  100.2206   54.2428 S   0  0  0  0  0  0  0  0  0  0  0  0
  1  2  1  0
  2  3  1  0
  2  4  1  0
  4  5  2  0
  5  6  1  0
  6  7  2  0
  7  8  1  0
  8  9  1  0
  9 10  2  0
  9 11  1  0
 11 12  1  0
 12 13  1  0
 13 14  2  0
 14 15  1  0
 15 16  2  0
 16 17  1  0
 17 18  1  0
 18 19  1  0
 19 20  1  0
 20 21  1  0
 21 22  1  0
 22 23  1  0
 16 24  1  0
 24 25  2  0
  7 26  1  0
 26  4  1  0
 25 13  1  0
 23 18  1  0
M  END
$$$$
