
     RDKit          3D

 20 21  0  0  0  0  0  0  0  0999 V2000
   10.3146   91.6672   65.2592 C   0  0  0  0  0  0  0  0  0  0  0  0
   11.3863   91.9957   64.2536 C   0  0  0  0  0  0  0  0  0  0  0  0
   12.2166   93.1683   64.6309 C   0  0  0  0  0  0  0  0  0  0  0  0
   12.8680   93.6629   63.4027 N   0  0  0  0  0  0  0  0  0  0  0  0
   14.0728   92.9905   63.0231 C   0  0  0  0  0  0  0  0  0  0  0  0
   12.3029   94.6948   62.6441 C   0  0  0  0  0  0  0  0  0  0  0  0
   11.0127   95.0821   62.9226 N   0  0  0  0  0  0  0  0  0  0  0  0
   10.4079   96.0483   62.2348 C   0  0  0  0  0  0  0  0  0  0  0  0
   11.1186   96.6251   61.2596 N   0  0  0  0  0  0  0  0  0  0  0  0
   12.3789   96.3018   60.9312 C   0  0  0  0  0  0  0  0  0  0  0  0
   13.0492   97.0056   59.8967 N   0  0  0  0  0  0  0  0  0  0  0  0
   12.4573   98.2305   59.4473 C   0  0  0  0  0  0  0  0  0  0  0  0
   12.9455   98.9243   58.3508 C   0  0  0  0  0  0  0  0  0  0  0  0
   12.3481  100.0852   57.9032 C   0  0  0  0  0  0  0  0  0  0  0  0
   11.2367  100.5601   58.5689 C   0  0  0  0  0  0  0  0  0  0  0  0
   10.4398  102.0324   58.0368 Cl  0  0  0  0  0  0  0  0  0  0  0  0
   10.7543   99.8621   59.6660 C   0  0  0  0  0  0  0  0  0  0  0  0
   11.3739   98.7215   60.0752 N   0  0  0  0  0  0  0  0  0  0  0  0
   13.0066   95.3065   61.6344 C   0  0  0  0  0  0  0  0  0  0  0  0
   14.3383   94.9814   61.2837 N   0  0  0  0  0  0  0  0  0  0  0  0
  1  2  1  0
  2  3  1  0
  3  4  1  0
  4  5  1  0
  4  6  1  0
  6  7  2  0
  7  8  1  0
  8  9  2  0
  9 10  1  0
 10 11  1  0
 11 12  1  0
 12 13  2  0
 13 14  1  0
 14 15  2  0
 15 16  1  0
 15 17  1  0
 17 18  2  0
 10 19  2  0
 19 20  1  0
 19  6  1  0
 18 12  1  0
M  END
$$$$
