
     RDKit          3D

 25 27  0  0  0  0  0  0  0  0999 V2000
   12.7630  101.8266   53.1743 N   0  0  0  0  0  0  0  0  0  0  0  0
   12.8448  100.5108   53.6924 C   0  0  0  0  0  0  0  0  0  0  0  0
   13.0755   99.4650   52.8283 C   0  0  0  0  0  0  0  0  0  0  0  0
   13.1479   98.1880   53.3860 C   0  0  0  0  0  0  0  0  0  0  0  0
   12.9952   97.9773   54.7458 C   0  0  0  0  0  0  0  0  0  0  0  0
   12.7633   99.0631   55.5835 C   0  0  0  0  0  0  0  0  0  0  0  0
   12.6880  100.3319   55.0566 C   0  0  0  0  0  0  0  0  0  0  0  0
   12.4534  101.4160   55.9418 N   0  0  0  0  0  0  0  0  0  0  0  0
   12.2978  101.1890   57.3646 C   0  0  0  0  0  0  0  0  0  0  0  0
   12.4719  102.1188   58.1675 O   0  0  0  0  0  0  0  0  0  0  0  0
   11.9331   99.8215   57.7618 C   0  0  0  0  0  0  0  0  0  0  0  0
   12.0616   99.5617   59.2189 C   0  0  0  0  0  0  0  0  0  0  0  0
   11.5455   98.2169   59.5427 C   0  0  0  0  0  0  0  0  0  0  0  0
   11.6313   97.3030   58.7015 O   0  0  0  0  0  0  0  0  0  0  0  0
   10.9538   97.9518   60.7974 N   0  0  0  0  0  0  0  0  0  0  0  0
   10.6861   96.6139   61.2703 C   0  0  0  0  0  0  0  0  0  0  0  0
   11.8752   95.7448   60.9802 C   0  0  0  0  0  0  0  0  0  0  0  0
   13.0573   96.2601   61.6557 N   0  0  0  0  0  0  0  0  0  0  0  0
   13.7626   95.4129   62.5458 C   0  0  0  0  0  0  0  0  0  0  0  0
   13.2927   94.1813   62.9408 C   0  0  0  0  0  0  0  0  0  0  0  0
   14.0001   93.3766   63.8090 C   0  0  0  0  0  0  0  0  0  0  0  0
   15.2151   93.7975   64.3079 C   0  0  0  0  0  0  0  0  0  0  0  0
   15.6604   95.0036   63.9121 N   0  0  0  0  0  0  0  0  0  0  0  0
   14.9860   95.8034   63.0666 C   0  0  0  0  0  0  0  0  0  0  0  0
   12.6074   98.8685   56.9501 O   0  0  0  0  0  0  0  0  0  0  0  0
  1  2  1  0
  2  3  2  0
  3  4  1  0
  4  5  2  0
  5  6  1  0
  6  7  2  0
  7  8  1  0
  8  9  1  0
  9 10  2  0
  9 11  1  0
 11 12  1  0
 12 13  1  0
 13 14  2  0
 13 15  1  0
 15 16  1  0
 16 17  1  0
 17 18  1  0
 18 19  1  0
 19 20  2  0
 20 21  1  0
 21 22  2  0
 22 23  1  0
 23 24  2  0
 11 25  1  0
  7  2  1  0
 24 19  1  0
 25  6  1  0
M  END
$$$$
