
     RDKit          3D

 19 20  0  0  0  0  0  0  0  0999 V2000
   29.8043   82.2766   53.4085 C   0  0  0  0  0  0  0  0  0  0  0  0
   30.9856   82.4683   52.5649 C   0  0  0  0  0  0  0  0  0  0  0  0
   31.9799   82.6387   51.8709 C   0  0  0  0  0  0  0  0  0  0  0  0
   33.1590   82.8558   51.0642 C   0  0  0  0  0  0  0  0  0  0  0  0
   33.5299   84.2221   51.0537 O   0  0  0  0  0  0  0  0  0  0  0  0
   32.9049   82.5076   49.6410 C   0  0  0  0  0  0  0  0  0  0  0  0
   33.5782   83.0469   48.5734 C   0  0  0  0  0  0  0  0  0  0  0  0
   33.3234   82.7032   47.2533 C   0  0  0  0  0  0  0  0  0  0  0  0
   32.3390   81.7691   47.0127 C   0  0  0  0  0  0  0  0  0  0  0  0
   32.0517   81.3893   45.6145 C   0  0  0  0  0  0  0  0  0  0  0  0
   32.4544   82.4757   44.8143 O   0  0  0  0  0  0  0  0  0  0  0  0
   31.6300   81.1941   48.0466 C   0  0  0  0  0  0  0  0  0  0  0  0
   31.9153   81.5639   49.3418 C   0  0  0  0  0  0  0  0  0  0  0  0
   34.3248   82.1261   51.6144 C   0  0  0  0  0  0  0  0  0  0  0  0
   34.7849   82.2481   52.9031 C   0  0  0  0  0  0  0  0  0  0  0  0
   35.8150   81.4744   53.0422 O   0  0  0  0  0  0  0  0  0  0  0  0
   36.0445   80.8626   51.9209 C   0  0  0  0  0  0  0  0  0  0  0  0
   37.1680   79.8712   51.6857 C   0  0  0  0  0  0  0  0  0  0  0  0
   35.1368   81.2441   51.0107 N   0  0  0  0  0  0  0  0  0  0  0  0
  1  2  1  0
  2  3  3  0
  3  4  1  0
  4  5  1  0
  4  6  1  0
  6  7  2  0
  7  8  1  0
  8  9  2  0
  9 10  1  0
 10 11  1  0
  9 12  1  0
 12 13  2  0
  4 14  1  0
 14 15  2  0
 15 16  1  0
 16 17  1  0
 17 18  1  0
 17 19  2  0
 13  6  1  0
 19 14  1  0
M  END
$$$$
