
     RDKit          3D

 24 25  0  0  0  0  0  0  0  0999 V2000
   14.0705   93.8118   62.9081 C   0  0  0  0  0  0  0  0  0  0  0  0
   14.2624   95.0375   62.0114 C   0  0  0  0  0  0  0  0  0  0  0  0
   15.4844   95.8212   62.4396 C   0  0  0  0  0  0  0  0  0  0  0  0
   13.1232   95.9156   62.1024 N   0  0  0  0  0  0  0  0  0  0  0  0
   12.5236   96.4946   60.9563 C   0  0  0  0  0  0  0  0  0  0  0  0
   12.0143   95.7499   60.0746 O   0  0  0  0  0  0  0  0  0  0  0  0
   12.4648   97.8935   60.7445 N   0  0  0  0  0  0  0  0  0  0  0  0
   11.3906   98.4513   59.9082 C   0  0  0  0  0  0  0  0  0  0  0  0
   11.4895   99.9448   60.0428 C   0  0  0  0  0  0  0  0  0  0  0  0
   10.0853   97.9903   60.4728 C   0  0  0  0  0  0  0  0  0  0  0  0
   11.6390   97.9737   58.5094 C   0  0  0  0  0  0  0  0  0  0  0  0
   12.7493   98.6343   57.8318 C   0  0  0  0  0  0  0  0  0  0  0  0
   13.4804   99.4316   58.4735 O   0  0  0  0  0  0  0  0  0  0  0  0
   13.0195   98.3996   56.4794 N   0  0  0  0  0  0  0  0  0  0  0  0
   13.8093   99.2377   55.6502 C   0  0  0  0  0  0  0  0  0  0  0  0
   14.7640  100.0394   56.2384 C   0  0  0  0  0  0  0  0  0  0  0  0
   15.5444  100.8588   55.4815 N   0  0  0  0  0  0  0  0  0  0  0  0
   15.4445  100.9436   54.1463 C   0  0  0  0  0  0  0  0  0  0  0  0
   14.4962  100.1505   53.5369 C   0  0  0  0  0  0  0  0  0  0  0  0
   14.3422  100.1899   52.1695 C   0  0  0  0  0  0  0  0  0  0  0  0
   13.3814   99.3871   51.5473 C   0  0  0  0  0  0  0  0  0  0  0  0
   12.6038   98.5683   52.3200 C   0  0  0  0  0  0  0  0  0  0  0  0
   12.7270   98.4999   53.6918 C   0  0  0  0  0  0  0  0  0  0  0  0
   13.6802   99.2991   54.2882 C   0  0  0  0  0  0  0  0  0  0  0  0
  1  2  1  0
  2  3  1  0
  2  4  1  0
  4  5  1  0
  5  6  2  0
  5  7  1  0
  7  8  1  0
  8  9  1  0
  8 10  1  0
  8 11  1  0
 11 12  1  0
 12 13  2  0
 12 14  1  0
 14 15  1  0
 15 16  2  0
 16 17  1  0
 17 18  2  0
 18 19  1  0
 19 20  2  0
 20 21  1  0
 21 22  2  0
 22 23  1  0
 23 24  2  0
 24 15  1  0
 24 19  1  0
M  END
$$$$
