
     RDKit          3D

 28 31  0  0  0  0  0  0  0  0999 V2000
   31.4747   82.5271   53.5823 C   0  0  0  0  0  0  0  0  0  0  0  0
   31.4697   82.3128   52.1246 N   0  0  0  0  0  4  0  0  0  0  0  0
   32.6463   81.6129   51.7736 C   0  0  0  0  0  0  0  0  0  0  0  0
   33.9515   82.2749   51.7399 C   0  0  0  0  0  0  0  0  0  0  0  0
   34.8116   82.2728   50.5586 C   0  0  0  0  0  0  0  0  0  0  0  0
   36.4311   81.5533   50.6469 P   0  0  0  0  0  4  0  0  0  0  0  0
   36.5085   80.2734   51.8973 C   0  0  0  0  0  0  0  0  0  0  0  0
   37.5475   80.3235   52.8079 C   0  0  0  0  0  0  0  0  0  0  0  0
   37.6367   79.3480   53.7571 C   0  0  0  0  0  0  0  0  0  0  0  0
   36.7209   78.3165   53.8322 C   0  0  0  0  0  0  0  0  0  0  0  0
   35.6883   78.2711   52.9238 C   0  0  0  0  0  0  0  0  0  0  0  0
   35.6028   79.2549   51.9709 C   0  0  0  0  0  0  0  0  0  0  0  0
   37.0878   80.9413   49.1271 C   0  0  0  0  0  0  0  0  0  0  0  0
   36.3633   81.1174   47.9718 C   0  0  0  0  0  0  0  0  0  0  0  0
   36.8262   80.6537   46.7386 C   0  0  0  0  0  0  0  0  0  0  0  0
   38.0221   80.0103   46.6676 C   0  0  0  0  0  0  0  0  0  0  0  0
   38.7567   79.8258   47.8093 C   0  0  0  0  0  0  0  0  0  0  0  0
   38.2978   80.2870   49.0407 C   0  0  0  0  0  0  0  0  0  0  0  0
   37.6090   82.8437   51.1894 C   0  0  0  0  0  0  0  0  0  0  0  0
   38.7654   83.0764   50.4837 C   0  0  0  0  0  0  0  0  0  0  0  0
   39.6677   84.0560   50.8884 C   0  0  0  0  0  0  0  0  0  0  0  0
   39.4157   84.8139   52.0103 C   0  0  0  0  0  0  0  0  0  0  0  0
   38.2537   84.5701   52.7075 C   0  0  0  0  0  0  0  0  0  0  0  0
   37.3476   83.5959   52.3125 C   0  0  0  0  0  0  0  0  0  0  0  0
   30.2647   81.5195   51.8707 C   0  0  0  0  0  0  0  0  0  0  0  0
   29.1514   82.5024   52.0894 C   0  0  0  0  0  0  0  0  0  0  0  0
   29.7790   83.8539   52.0179 C   0  0  0  0  0  0  0  0  0  0  0  0
   31.2320   83.5916   51.5496 C   0  0  0  0  0  0  0  0  0  0  0  0
  1  2  1  0
  2  3  1  0
  3  4  1  0
  4  5  1  0
  5  6  1  0
  6  7  1  0
  7  8  2  0
  8  9  1  0
  9 10  2  0
 10 11  1  0
 11 12  2  0
  6 13  1  0
 13 14  2  0
 14 15  1  0
 15 16  2  0
 16 17  1  0
 17 18  2  0
  6 19  1  0
 19 20  2  0
 20 21  1  0
 21 22  2  0
 22 23  1  0
 23 24  2  0
  2 25  1  0
 25 26  1  0
 26 27  1  0
 27 28  1  0
 28  2  1  0
 12  7  1  0
 18 13  1  0
 24 19  1  0
M  CHG  2   2   1   6   1
M  END
$$$$
