
     RDKit          3D

 26 28  0  0  0  0  0  0  0  0999 V2000
   10.3427   60.0207   12.6616 C   0  0  0  0  0  0  0  0  0  0  0  0
   10.8928   58.8857   12.0515 O   0  0  0  0  0  0  0  0  0  0  0  0
   12.1243   58.3892   12.3696 C   0  0  0  0  0  0  0  0  0  0  0  0
   12.6990   57.2710   11.8256 C   0  0  0  0  0  0  0  0  0  0  0  0
   13.9496   56.8353   12.1948 C   0  0  0  0  0  0  0  0  0  0  0  0
   14.6536   57.5398   13.1389 C   0  0  0  0  0  0  0  0  0  0  0  0
   16.0236   57.1148   13.5319 C   0  0  0  0  0  0  0  0  0  0  0  0
   16.5933   56.3178   12.5023 N   0  0  0  0  0  0  0  0  0  0  0  0
   17.0488   54.9850   12.8437 C   0  0  0  0  0  0  0  0  0  0  0  0
   17.7840   54.2960   11.9798 N   0  0  0  0  0  0  0  0  0  0  0  0
   18.2261   53.0404   12.2825 C   0  0  0  0  0  0  0  0  0  0  0  0
   19.1850   52.0990   11.1859 Cl  0  0  0  0  0  0  0  0  0  0  0  0
   17.8876   52.5524   13.4704 N   0  0  0  0  0  0  0  0  0  0  0  0
   17.1480   53.2017   14.3812 C   0  0  0  0  0  0  0  0  0  0  0  0
   16.8678   52.5721   15.6154 N   0  0  0  0  0  0  0  0  0  0  0  0
   16.8437   51.0997   15.6403 C   0  0  0  0  0  0  0  0  0  0  0  0
   15.6333   50.7289   16.4343 C   0  0  0  0  0  0  0  0  0  0  0  0
   14.4037   51.3382   16.2205 C   0  0  0  0  0  0  0  0  0  0  0  0
   13.2831   51.0326   16.9270 C   0  0  0  0  0  0  0  0  0  0  0  0
   13.3188   50.0618   17.9323 C   0  0  0  0  0  0  0  0  0  0  0  0
   11.7937   49.5862   18.9587 Br  0  0  0  0  0  0  0  0  0  0  0  0
   14.5417   49.4596   18.1405 C   0  0  0  0  0  0  0  0  0  0  0  0
   15.6779   49.7665   17.4264 C   0  0  0  0  0  0  0  0  0  0  0  0
   16.7366   54.4387   14.0311 N   0  0  0  0  0  0  0  0  0  0  0  0
   14.0870   58.6642   13.6945 C   0  0  0  0  0  0  0  0  0  0  0  0
   12.8474   59.0952   13.3299 C   0  0  0  0  0  0  0  0  0  0  0  0
  1  2  1  0
  2  3  1  0
  3  4  2  0
  4  5  1  0
  5  6  2  0
  6  7  1  0
  7  8  1  0
  8  9  1  0
  9 10  2  0
 10 11  1  0
 11 12  1  0
 11 13  2  0
 13 14  1  0
 14 15  1  0
 15 16  1  0
 16 17  1  0
 17 18  2  0
 18 19  1  0
 19 20  2  0
 20 21  1  0
 20 22  1  0
 22 23  2  0
 14 24  2  0
  6 25  1  0
 25 26  2  0
 26  3  1  0
 24  9  1  0
 23 17  1  0
M  END
$$$$
