
     RDKit          3D

 33 35  0  0  0  0  0  0  0  0999 V2000
   21.4927   48.6568   19.3262 C   0  0  0  0  0  0  0  0  0  0  0  0
   20.3063   48.4238   20.1989 C   0  0  0  0  0  0  0  0  0  0  0  0
   20.7389   48.2834   21.6560 C   0  0  0  0  0  0  0  0  0  0  0  0
   19.2340   49.4194   20.0206 C   0  0  0  0  0  0  0  0  0  0  0  0
   18.7843   49.8420   18.7703 N   0  0  0  0  0  0  0  0  0  0  0  0
   17.9139   49.1936   17.8720 C   0  0  0  0  0  0  0  0  0  0  0  0
   18.3008   48.2813   17.1041 O   0  0  0  0  0  0  0  0  0  0  0  0
   16.4490   49.5514   17.7701 C   0  0  2  0  0  0  0  0  0  0  0  0
   15.5652   48.4098   18.0556 C   0  0  0  0  0  0  0  0  0  0  0  0
   14.4554   48.6028   19.0182 C   0  0  0  0  0  0  0  0  0  0  0  0
   13.9626   50.0327   19.1293 C   0  0  0  0  0  0  0  0  0  0  0  0
   12.5044   49.9179   19.5254 C   0  0  0  0  0  0  0  0  0  0  0  0
   12.3151   48.4525   19.8963 C   0  0  0  0  0  0  0  0  0  0  0  0
   13.2498   47.7462   18.8811 C   0  0  0  0  0  0  0  0  0  0  0  0
   16.2057   50.2569   16.5329 N   0  0  0  0  0  0  0  0  0  0  0  0
   16.3835   51.6585   16.3663 C   0  0  0  0  0  0  0  0  0  0  0  0
   16.7748   52.3673   17.3205 O   0  0  0  0  0  0  0  0  0  0  0  0
   16.1089   52.3215   15.0536 C   0  0  0  0  0  0  0  0  0  0  0  0
   15.7852   53.7884   15.2599 C   0  0  0  0  0  0  0  0  0  0  0  0
   15.6802   54.4448   13.9945 N   0  0  0  0  0  0  0  0  0  0  0  0
   15.7663   55.8806   14.0672 C   0  0  0  0  0  0  0  0  0  0  0  0
   14.9294   56.6084   13.0859 C   0  0  0  0  0  0  0  0  0  0  0  0
   14.6931   55.9365   11.7801 C   0  0  0  0  0  0  0  0  0  0  0  0
   13.3973   56.3181   11.3552 O   0  0  0  0  0  0  0  0  0  0  0  0
   14.7392   54.4478   11.8023 C   0  0  0  0  0  0  0  0  0  0  0  0
   14.5356   53.9948   13.2276 C   0  0  0  0  0  0  0  0  0  0  0  0
   19.7083   47.0817   19.8328 C   0  0  0  0  0  0  0  0  0  0  0  0
   20.2195   46.3526   18.7866 C   0  0  0  0  0  0  0  0  0  0  0  0
   19.6577   45.1357   18.4991 C   0  0  0  0  0  0  0  0  0  0  0  0
   18.6069   44.6507   19.2369 C   0  0  0  0  0  0  0  0  0  0  0  0
   17.9035   43.0750   18.8388 Cl  0  0  0  0  0  0  0  0  0  0  0  0
   18.1079   45.3840   20.2740 C   0  0  0  0  0  0  0  0  0  0  0  0
   18.6673   46.6145   20.5736 C   0  0  0  0  0  0  0  0  0  0  0  0
  1  2  1  0
  2  3  1  0
  2  4  1  0
  4  5  1  0
  5  6  1  0
  6  7  2  0
  6  8  1  0
  8  9  1  6
  9 10  1  0
 10 11  1  0
 11 12  1  0
 12 13  1  0
 13 14  1  0
  8 15  1  0
 15 16  1  0
 16 17  2  0
 16 18  1  0
 18 19  1  0
 19 20  1  0
 20 21  1  0
 21 22  1  0
 22 23  1  0
 23 24  1  0
 23 25  1  0
 25 26  1  0
  2 27  1  0
 27 28  2  0
 28 29  1  0
 29 30  2  0
 30 31  1  0
 30 32  1  0
 32 33  2  0
 14 10  1  0
 26 20  1  0
 33 27  1  0
M  END
$$$$
