
     RDKit          3D

 35 40  0  0  0  0  0  0  0  0999 V2000
   16.6769   64.4151   19.0398 C   0  0  0  0  0  0  0  0  0  0  0  0
   16.9258   63.3473   18.0900 N   0  0  0  0  0  0  0  0  0  0  0  0
   15.7920   63.2651   17.2045 C   0  0  0  0  0  0  0  0  0  0  0  0
   16.1922   62.8418   15.8033 C   0  0  0  0  0  0  0  0  0  0  0  0
   17.3051   61.9383   15.9505 N   0  0  0  0  0  0  0  0  0  0  0  0
   17.3120   60.5598   15.7183 C   0  0  0  0  0  0  0  0  0  0  0  0
   18.4151   59.7843   16.0406 C   0  0  0  0  0  0  0  0  0  0  0  0
   18.4509   58.4292   15.8431 C   0  0  0  0  0  0  0  0  0  0  0  0
   17.3398   57.8319   15.3029 C   0  0  0  0  0  0  0  0  0  0  0  0
   16.2059   58.5777   14.9631 C   0  0  0  0  0  0  0  0  0  0  0  0
   16.1844   59.9417   15.1675 C   0  0  0  0  0  0  0  0  0  0  0  0
   15.0872   60.7499   14.8274 N   0  0  0  0  0  0  0  0  0  0  0  0
   14.1184   60.4621   13.8389 C   0  0  0  0  0  0  0  0  0  0  0  0
   13.0921   61.2328   13.5033 N   0  0  0  0  0  0  0  0  0  0  0  0
   12.1655   60.9800   12.5752 C   0  0  0  0  0  0  0  0  0  0  0  0
   11.1046   61.8794   12.3049 N   0  0  0  0  0  0  0  0  0  0  0  0
   11.0265   63.2159   12.8230 C   0  0  0  0  0  0  0  0  0  0  0  0
   12.2100   64.1260   12.6799 C   0  0  0  0  0  0  0  0  0  0  0  0
   11.9290   63.5540   14.0210 C   0  0  0  0  0  0  0  0  0  0  0  0
   12.3030   59.8040   11.9134 N   0  0  0  0  0  0  0  0  0  0  0  0
   11.5986   59.2415   10.9673 N   0  0  0  0  0  0  0  0  0  0  0  0
   12.1091   58.0516   10.6053 C   0  0  0  0  0  0  0  0  0  0  0  0
   13.2250   57.8487   11.3859 C   0  0  0  0  0  0  0  0  0  0  0  0
   14.1518   56.7517   11.4100 C   0  0  0  0  0  0  0  0  0  0  0  0
   14.7335   56.3238   12.5044 C   0  0  0  0  0  0  0  0  0  0  0  0
   14.5846   56.8518   13.7998 N   0  0  0  0  0  0  0  0  0  0  0  0
   15.4065   56.0892   14.6848 C   0  0  0  0  0  0  0  0  0  0  0  0
   15.4834   56.3302   15.9319 O   0  0  0  0  0  0  0  0  0  0  0  0
   16.0589   55.0945   13.9362 N   0  0  0  0  0  0  0  0  0  0  0  0
   15.6745   55.2013   12.5901 C   0  0  0  0  0  0  0  0  0  0  0  0
   16.0506   54.4866   11.6329 O   0  0  0  0  0  0  0  0  0  0  0  0
   13.3196   58.9805   12.2062 C   0  0  0  0  0  0  0  0  0  0  0  0
   14.2272   59.2767   13.1472 N   0  0  0  0  0  0  0  0  0  0  0  0
   18.5537   62.5758   16.4095 C   0  0  0  0  0  0  0  0  0  0  0  0
   18.1802   63.6278   17.4333 C   0  0  0  0  0  0  0  0  0  0  0  0
  1  2  1  0
  2  3  1  0
  3  4  1  0
  4  5  1  0
  5  6  1  0
  6  7  2  0
  7  8  1  0
  8  9  2  0
  9 10  1  0
 10 11  2  0
 11 12  1  0
 12 13  1  0
 13 14  1  0
 14 15  2  0
 15 16  1  0
 16 17  1  0
 17 18  1  0
 18 19  1  0
 15 20  1  0
 20 21  1  0
 21 22  2  0
 22 23  1  0
 23 24  1  0
 24 25  2  0
 25 26  1  0
 26 27  1  0
 27 28  2  0
 27 29  1  0
 29 30  1  0
 30 31  2  0
 23 32  2  0
 32 33  1  0
  5 34  1  0
 34 35  1  0
 35  2  1  0
 11  6  1  0
 33 13  2  0
 19 17  1  0
 32 20  1  0
 30 25  1  0
M  END
$$$$
