
     RDKit          3D

 27 29  0  0  0  0  0  0  0  0999 V2000
   12.8911   49.9542   14.4463 C   0  0  0  0  0  0  0  0  0  0  0  0
   13.3435   49.7770   15.8651 C   0  0  0  0  0  0  0  0  0  0  0  0
   12.4306   49.9233   16.8835 C   0  0  0  0  0  0  0  0  0  0  0  0
   12.7724   49.7613   18.2299 C   0  0  0  0  0  0  0  0  0  0  0  0
   14.0823   49.4406   18.4965 C   0  0  0  0  0  0  0  0  0  0  0  0
   14.5403   49.2207   19.9011 C   0  0  0  0  0  0  0  0  0  0  0  0
   15.0487   49.2832   17.4925 C   0  0  0  0  0  0  0  0  0  0  0  0
   16.4048   48.9668   17.8741 C   0  0  0  0  0  0  0  0  0  0  0  0
   17.5640   48.7183   18.1961 C   0  0  0  0  0  0  0  0  0  0  0  0
   18.8974   48.4361   18.5887 C   0  0  0  0  0  0  0  0  0  0  0  0
   19.9071   48.6509   17.6349 C   0  0  0  0  0  0  0  0  0  0  0  0
   21.2544   48.5568   18.0218 C   0  0  0  0  0  0  0  0  0  0  0  0
   21.5741   48.2620   19.3068 C   0  0  0  0  0  0  0  0  0  0  0  0
   20.6218   48.0460   20.2674 C   0  0  0  0  0  0  0  0  0  0  0  0
   21.0297   47.7418   21.6483 C   0  0  0  0  0  0  0  0  0  0  0  0
   21.9708   48.6687   22.1398 O   0  0  0  0  0  0  0  0  0  0  0  0
   21.9584   48.6242   23.5339 C   0  0  0  0  0  0  0  0  0  0  0  0
   23.0467   49.5476   24.0301 C   0  0  0  0  0  0  0  0  0  0  0  0
   22.5823   50.8774   23.8747 O   0  0  0  0  0  0  0  0  0  0  0  0
   22.2355   47.2468   24.0885 C   0  0  0  0  0  0  0  0  0  0  0  0
   23.5674   47.1951   24.5481 O   0  0  0  0  0  0  0  0  0  0  0  0
   21.8897   46.0951   23.2401 C   0  0  0  0  0  0  0  0  0  0  0  0
   22.9075   45.1179   23.3829 O   0  0  0  0  0  0  0  0  0  0  0  0
   21.7147   46.3849   21.7781 C   0  0  0  0  0  0  0  0  0  0  0  0
   20.9740   45.3615   21.1688 O   0  0  0  0  0  0  0  0  0  0  0  0
   19.3137   48.1414   19.8679 C   0  0  0  0  0  0  0  0  0  0  0  0
   14.6679   49.4525   16.1800 C   0  0  0  0  0  0  0  0  0  0  0  0
  1  2  1  0
  2  3  2  0
  3  4  1  0
  4  5  2  0
  5  6  1  0
  5  7  1  0
  7  8  1  0
  8  9  3  0
  9 10  1  0
 10 11  2  0
 11 12  1  0
 12 13  2  0
 13 14  1  0
 14 15  1  0
 15 16  1  0
 16 17  1  0
 17 18  1  0
 18 19  1  0
 17 20  1  0
 20 21  1  0
 20 22  1  0
 22 23  1  0
 22 24  1  0
 24 25  1  0
 14 26  2  0
  7 27  2  0
 27  2  1  0
 26 10  1  0
 24 15  1  0
M  END
$$$$
