
     RDKit          3D

 21 23  0  0  0  0  0  0  0  0999 V2000
   14.6620   46.9187   19.7334 C   0  0  0  0  0  0  0  0  0  0  0  0
   16.0802   47.1593   19.3574 C   0  0  0  0  0  0  0  0  0  0  0  0
   17.0286   46.6523   20.4559 C   0  0  0  0  0  0  0  0  0  0  0  0
   16.4348   48.5743   19.0785 C   0  0  0  0  0  0  0  0  0  0  0  0
   15.9613   49.1038   17.8941 N   0  0  0  0  0  0  0  0  0  0  0  0
   14.6551   49.5129   17.6737 C   0  0  0  0  0  0  0  0  0  0  0  0
   14.5608   50.1806   16.2804 C   0  0  0  0  0  0  0  0  0  0  0  0
   15.4345   51.3034   16.3114 N   0  0  0  0  0  0  0  0  0  0  0  0
   15.0791   52.5548   15.8148 C   0  0  0  0  0  0  0  0  0  0  0  0
   14.1749   53.2570   16.4062 O   0  0  0  0  0  0  0  0  0  0  0  0
   15.6956   53.1109   14.6372 C   0  0  0  0  0  0  0  0  0  0  0  0
   16.2449   52.5440   13.5140 C   0  0  0  0  0  0  0  0  0  0  0  0
   16.6751   53.5291   12.6592 C   0  0  0  0  0  0  0  0  0  0  0  0
   17.2733   53.5412   11.4154 C   0  0  0  0  0  0  0  0  0  0  0  0
   17.5909   54.7139   10.7645 C   0  0  0  0  0  0  0  0  0  0  0  0
   17.2968   55.9098   11.3849 C   0  0  0  0  0  0  0  0  0  0  0  0
   16.6934   55.9331   12.6402 C   0  0  0  0  0  0  0  0  0  0  0  0
   16.3821   54.7327   13.2777 C   0  0  0  0  0  0  0  0  0  0  0  0
   15.8019   54.4566   14.4509 N   0  0  0  0  0  0  0  0  0  0  0  0
   16.7558   51.0959   16.9038 C   0  0  0  0  0  0  0  0  0  0  0  0
   16.9635   49.5717   16.9734 C   0  0  0  0  0  0  0  0  0  0  0  0
  1  2  1  0
  2  3  1  0
  2  4  1  0
  4  5  1  0
  5  6  1  0
  6  7  1  0
  7  8  1  0
  8  9  1  0
  9 10  2  0
  9 11  1  0
 11 12  2  0
 12 13  1  0
 13 14  2  0
 14 15  1  0
 15 16  2  0
 16 17  1  0
 17 18  2  0
 18 19  1  0
  8 20  1  0
 20 21  1  0
 21  5  1  0
 19 11  1  0
 18 13  1  0
M  END
$$$$
