
     RDKit          3D

 28 30  0  0  0  0  0  0  0  0999 V2000
   13.1088   91.9135   64.4045 C   0  0  0  0  0  0  0  0  0  0  0  0
   13.0245   92.7625   63.1740 C   0  0  0  0  0  0  0  0  0  0  0  0
   12.6330   94.0854   63.4049 O   0  0  0  0  0  0  0  0  0  0  0  0
   12.6298   95.0932   62.4617 C   0  0  0  0  0  0  0  0  0  0  0  0
   12.0529   94.9817   61.2254 C   0  0  0  0  0  0  0  0  0  0  0  0
   12.0780   96.0211   60.3189 C   0  0  0  0  0  0  0  0  0  0  0  0
   12.6810   97.2284   60.5991 C   0  0  0  0  0  0  0  0  0  0  0  0
   12.6920   98.2827   59.6469 N   0  0  0  0  0  0  0  0  0  0  0  0
   12.0079   98.1569   58.3990 C   0  0  0  0  0  0  0  0  0  0  0  0
   10.9409   97.4937   58.4183 O   0  0  0  0  0  0  0  0  0  0  0  0
   12.4733   98.7412   57.1489 C   0  0  0  0  0  0  0  0  0  0  0  0
   13.6172   97.9720   56.5195 C   0  0  0  0  0  0  0  0  0  0  0  0
   13.6893   98.3905   55.0704 C   0  0  0  0  0  0  0  0  0  0  0  0
   13.6640   99.8318   54.9423 N   0  0  0  0  0  0  0  0  0  0  0  0
   14.2541  100.4214   53.7933 C   0  0  0  0  0  0  0  0  0  0  0  0
   14.5814   99.6689   52.6980 C   0  0  0  0  0  0  0  0  0  0  0  0
   15.1740  100.2649   51.5691 C   0  0  0  0  0  0  0  0  0  0  0  0
   15.3968  101.6074   51.6323 C   0  0  0  0  0  0  0  0  0  0  0  0
   16.0109  102.3554   50.5198 C   0  0  0  0  0  0  0  0  0  0  0  0
   15.0555  102.3118   52.7390 N   0  0  0  0  0  0  0  0  0  0  0  0
   14.4998  101.7349   53.7899 N   0  0  0  0  0  0  0  0  0  0  0  0
   13.0549  100.7265   55.9153 C   0  0  0  0  0  0  0  0  0  0  0  0
   12.9936  100.1585   57.3081 C   0  0  0  0  0  0  0  0  0  0  0  0
   13.2643   97.3416   61.8489 C   0  0  0  0  0  0  0  0  0  0  0  0
   13.2505   96.3025   62.7806 C   0  0  0  0  0  0  0  0  0  0  0  0
   13.8336   96.4112   64.0306 O   0  0  0  0  0  0  0  0  0  0  0  0
   13.5239   97.4001   64.9802 C   0  0  0  0  0  0  0  0  0  0  0  0
   14.3571   97.3136   66.2308 C   0  0  0  0  0  0  0  0  0  0  0  0
  1  2  1  0
  2  3  1  0
  3  4  1  0
  4  5  2  0
  5  6  1  0
  6  7  2  0
  7  8  1  0
  8  9  1  0
  9 10  2  0
  9 11  1  0
 11 12  1  0
 12 13  1  0
 13 14  1  0
 14 15  1  0
 15 16  2  0
 16 17  1  0
 17 18  2  0
 18 19  1  0
 18 20  1  0
 20 21  2  0
 14 22  1  0
 22 23  1  0
  7 24  1  0
 24 25  2  0
 25 26  1  0
 26 27  1  0
 27 28  1  0
 25  4  1  0
 23 11  1  0
 21 15  1  0
M  END
$$$$
