
     RDKit          3D

 24 27  0  0  0  0  0  0  0  0999 V2000
   13.9690   49.6595   17.1586 C   0  0  0  0  0  0  0  0  0  0  0  0
   14.8630   48.6350   17.3324 C   0  0  0  0  0  0  0  0  0  0  0  0
   16.0475   49.0696   17.0436 O   0  0  0  0  0  0  0  0  0  0  0  0
   16.0095   50.3446   16.6795 C   0  0  0  0  0  0  0  0  0  0  0  0
   17.1874   51.1402   16.2870 C   0  0  0  0  0  0  0  0  0  0  0  0
   16.8390   52.5355   16.0547 N   0  0  0  0  0  0  0  0  0  0  0  0
   16.7068   53.0300   14.7278 C   0  0  0  0  0  0  0  0  0  0  0  0
   17.0930   52.2676   13.6980 N   0  0  0  0  0  0  0  0  0  0  0  0
   16.9649   52.7412   12.4524 C   0  0  0  0  0  0  0  0  0  0  0  0
   16.4353   54.0171   12.2066 C   0  0  0  0  0  0  0  0  0  0  0  0
   16.0454   54.7832   13.2722 C   0  0  0  0  0  0  0  0  0  0  0  0
   15.4889   56.1138   13.0868 C   0  0  0  0  0  0  0  0  0  0  0  0
   15.6415   57.1551   13.9671 C   0  0  0  0  0  0  0  0  0  0  0  0
   15.0784   58.3850   13.7107 C   0  0  0  0  0  0  0  0  0  0  0  0
   14.3344   58.6187   12.5514 C   0  0  0  0  0  0  0  0  0  0  0  0
   13.7576   59.8904   12.2959 N   0  0  0  0  0  0  0  0  0  0  0  0
   12.8431   60.1913   11.3591 C   0  0  0  0  0  0  0  0  0  0  0  0
   12.5411   61.5561   11.4419 C   0  0  0  0  0  0  0  0  0  0  0  0
   13.3245   62.0280   12.4705 C   0  0  0  0  0  0  0  0  0  0  0  0
   14.0255   61.0012   12.9419 N   0  0  0  0  0  0  0  0  0  0  0  0
   14.2088   57.5429   11.6978 C   0  0  0  0  0  0  0  0  0  0  0  0
   14.7534   56.2991   11.9136 C   0  0  0  0  0  0  0  0  0  0  0  0
   16.2075   54.2336   14.4912 N   0  0  0  0  0  0  0  0  0  0  0  0
   14.6978   50.7490   16.7428 C   0  0  0  0  0  0  0  0  0  0  0  0
  1  2  2  0
  2  3  1  0
  3  4  1  0
  4  5  1  0
  5  6  1  0
  6  7  1  0
  7  8  2  0
  8  9  1  0
  9 10  2  0
 10 11  1  0
 11 12  1  0
 12 13  2  0
 13 14  1  0
 14 15  2  0
 15 16  1  0
 16 17  1  0
 17 18  2  0
 18 19  1  0
 19 20  2  0
 15 21  1  0
 21 22  2  0
 11 23  2  0
  4 24  2  0
 24  1  1  0
 23  7  1  0
 22 12  1  0
 20 16  1  0
M  END
$$$$
