
     RDKit          3D

 21 22  0  0  0  0  0  0  0  0999 V2000
   17.0963   48.0693   19.7673 C   0  0  0  0  0  0  0  0  0  0  0  0
   15.6558   48.2104   19.7830 N   0  0  0  0  0  0  0  0  0  0  0  0
   14.8992   47.4440   20.7373 C   0  0  0  0  0  0  0  0  0  0  0  0
   15.0105   49.0958   18.8639 C   0  0  0  0  0  0  0  0  0  0  0  0
   13.6406   49.2372   18.9021 C   0  0  0  0  0  0  0  0  0  0  0  0
   12.9984   50.0897   18.0211 C   0  0  0  0  0  0  0  0  0  0  0  0
   13.7882   50.7721   17.1255 C   0  0  0  0  0  0  0  0  0  0  0  0
   15.1658   50.6430   17.0719 C   0  0  0  0  0  0  0  0  0  0  0  0
   15.9297   51.4173   16.0750 C   0  0  0  0  0  0  0  0  0  0  0  0
   17.1768   51.2876   16.0574 O   0  0  0  0  0  0  0  0  0  0  0  0
   15.3451   52.2860   15.1501 N   0  0  0  0  0  0  0  0  0  0  0  0
   15.9694   53.0517   14.1409 C   0  0  0  0  0  0  0  0  0  0  0  0
   17.2074   52.8201   13.5986 C   0  0  0  0  0  0  0  0  0  0  0  0
   17.7658   53.6283   12.5931 C   0  0  0  0  0  0  0  0  0  0  0  0
   17.0798   54.7094   12.0995 C   0  0  0  0  0  0  0  0  0  0  0  0
   17.5883   55.5144   11.1264 F   0  0  0  0  0  0  0  0  0  0  0  0
   15.8368   54.9525   12.6351 C   0  0  0  0  0  0  0  0  0  0  0  0
   15.1412   56.0191   12.1592 F   0  0  0  0  0  0  0  0  0  0  0  0
   15.2908   54.1636   13.6171 C   0  0  0  0  0  0  0  0  0  0  0  0
   14.0444   54.4460   14.1221 F   0  0  0  0  0  0  0  0  0  0  0  0
   15.7721   49.8003   17.9470 C   0  0  0  0  0  0  0  0  0  0  0  0
  1  2  1  0
  2  3  1  0
  2  4  1  0
  4  5  2  0
  5  6  1  0
  6  7  2  0
  7  8  1  0
  8  9  1  0
  9 10  2  0
  9 11  1  0
 11 12  1  0
 12 13  2  0
 13 14  1  0
 14 15  2  0
 15 16  1  0
 15 17  1  0
 17 18  1  0
 17 19  2  0
 19 20  1  0
  8 21  2  0
 21  4  1  0
 19 12  1  0
M  END
$$$$
