
     RDKit          3D

 27 30  0  0  0  0  0  0  0  0999 V2000
   11.8193   96.1976   53.9605 O   0  0  0  0  0  0  0  0  0  0  0  0
   11.6477   96.7166   52.6589 C   0  0  0  0  0  0  0  0  0  0  0  0
   12.8974   96.4480   51.8903 C   0  0  0  0  0  0  0  0  0  0  0  0
   12.9536   97.0906   50.6012 N   0  0  0  0  0  0  0  0  0  0  0  0
   13.7165   98.2807   50.5278 C   0  0  0  0  0  0  0  0  0  0  0  0
   13.9723   98.8627   49.2773 C   0  0  0  0  0  0  0  0  0  0  0  0
   14.6938  100.0078   49.1469 C   0  0  0  0  0  0  0  0  0  0  0  0
   15.2014  100.6383   50.2524 C   0  0  0  0  0  0  0  0  0  0  0  0
   14.9529  100.0699   51.4871 C   0  0  0  0  0  0  0  0  0  0  0  0
   15.4711  100.7242   52.6762 C   0  0  0  0  0  0  0  0  0  0  0  0
   16.5149  101.5561   52.7836 N   0  0  0  0  0  0  0  0  0  0  0  0
   16.6834  101.9669   54.0320 N   0  0  0  0  0  0  0  0  0  0  0  0
   15.7230  101.3996   54.8102 C   0  0  0  0  0  0  0  0  0  0  0  0
   15.3827  101.4381   56.1444 C   0  0  0  0  0  0  0  0  0  0  0  0
   14.3401  100.7335   56.5992 N   0  0  0  0  0  0  0  0  0  0  0  0
   13.5722   99.9632   55.8154 C   0  0  0  0  0  0  0  0  0  0  0  0
   12.4350   99.1930   56.2870 C   0  0  0  0  0  0  0  0  0  0  0  0
   11.1803   99.3399   55.7333 C   0  0  0  0  0  0  0  0  0  0  0  0
   11.0295  100.2312   54.7280 F   0  0  0  0  0  0  0  0  0  0  0  0
   10.0699   98.6192   56.1550 C   0  0  0  0  0  0  0  0  0  0  0  0
   10.2142   97.7150   57.1701 C   0  0  0  0  0  0  0  0  0  0  0  0
   11.4492   97.5391   57.7493 C   0  0  0  0  0  0  0  0  0  0  0  0
   12.5541   98.2649   57.3199 C   0  0  0  0  0  0  0  0  0  0  0  0
   13.7895   98.1098   57.8707 F   0  0  0  0  0  0  0  0  0  0  0  0
   13.9000   99.9114   54.4640 C   0  0  0  0  0  0  0  0  0  0  0  0
   14.9626  100.6209   53.9661 C   0  0  0  0  0  0  0  0  0  0  0  0
   14.2372   98.9417   51.5664 N   0  0  0  0  0  0  0  0  0  0  0  0
  1  2  1  0
  2  3  1  0
  3  4  1  0
  4  5  1  0
  5  6  2  0
  6  7  1  0
  7  8  2  0
  8  9  1  0
  9 10  1  0
 10 11  2  0
 11 12  1  0
 12 13  1  0
 13 14  2  0
 14 15  1  0
 15 16  2  0
 16 17  1  0
 17 18  2  0
 18 19  1  0
 18 20  1  0
 20 21  2  0
 21 22  1  0
 22 23  2  0
 23 24  1  0
 16 25  1  0
 25 26  2  0
  9 27  2  0
 27  5  1  0
 26 10  1  0
 26 13  1  0
 23 17  1  0
M  END
$$$$
