
     RDKit          3D

 26 29  0  0  0  0  0  0  0  0999 V2000
   14.6458  100.4298   48.9996 C   0  0  0  0  0  0  0  0  0  0  0  0
   15.0028  100.9191   50.3497 C   0  0  0  0  0  0  0  0  0  0  0  0
   16.0169  101.8225   50.5835 C   0  0  0  0  0  0  0  0  0  0  0  0
   16.3332  102.2670   51.8549 C   0  0  0  0  0  0  0  0  0  0  0  0
   15.5880  101.7718   52.9217 C   0  0  0  0  0  0  0  0  0  0  0  0
   15.6462  102.0005   54.2457 N   0  0  0  0  0  0  0  0  0  0  0  0
   14.7283  101.2942   54.8615 N   0  0  0  0  0  0  0  0  0  0  0  0
   14.0329  100.5751   53.9720 C   0  0  0  0  0  0  0  0  0  0  0  0
   12.9426   99.6561   54.1942 C   0  0  0  0  0  0  0  0  0  0  0  0
   12.2561   99.2803   53.2173 O   0  0  0  0  0  0  0  0  0  0  0  0
   12.6264   99.1671   55.4788 N   0  0  0  0  0  0  0  0  0  0  0  0
   11.6232   98.1579   55.7568 C   0  0  0  0  0  0  0  0  0  0  0  0
   11.2888   98.1646   57.2341 C   0  0  0  0  0  0  0  0  0  0  0  0
   12.4127   98.0342   58.0968 N   0  0  0  0  0  0  0  0  0  0  0  0
   12.3020   98.7053   59.3679 C   0  0  0  0  0  0  0  0  0  0  0  0
   12.5838   97.8536   60.5374 C   0  0  0  0  0  0  0  0  0  0  0  0
   13.4481   96.7917   60.4033 C   0  0  0  0  0  0  0  0  0  0  0  0
   13.7396   95.9811   61.4752 C   0  0  0  0  0  0  0  0  0  0  0  0
   13.1546   96.2465   62.6876 C   0  0  0  0  0  0  0  0  0  0  0  0
   13.5278   95.2106   64.0586 Cl  0  0  0  0  0  0  0  0  0  0  0  0
   12.2895   97.2925   62.8645 C   0  0  0  0  0  0  0  0  0  0  0  0
   12.0141   98.0966   61.7549 C   0  0  0  0  0  0  0  0  0  0  0  0
   13.6570   98.4462   57.4832 C   0  0  0  0  0  0  0  0  0  0  0  0
   13.3288   99.6867   56.6673 C   0  0  0  0  0  0  0  0  0  0  0  0
   14.5676  100.8688   52.7341 C   0  0  0  0  0  0  0  0  0  0  0  0
   14.3002  100.4633   51.4415 C   0  0  0  0  0  0  0  0  0  0  0  0
  1  2  1  0
  2  3  2  0
  3  4  1  0
  4  5  2  0
  5  6  1  0
  6  7  1  0
  7  8  2  0
  8  9  1  0
  9 10  2  0
  9 11  1  0
 11 12  1  0
 12 13  1  0
 13 14  1  0
 14 15  1  0
 15 16  1  0
 16 17  2  0
 17 18  1  0
 18 19  2  0
 19 20  1  0
 19 21  1  0
 21 22  2  0
 14 23  1  0
 23 24  1  0
  8 25  1  0
 25 26  2  0
 26  2  1  0
 25  5  1  0
 24 11  1  0
 22 16  1  0
M  END
$$$$
