
     RDKit          3D

 27 29  0  0  0  0  0  0  0  0999 V2000
   39.2812   82.4611   47.4704 N   0  0  0  0  0  0  0  0  0  0  0  0
   39.9489   82.1655   48.6908 C   0  0  0  0  0  0  0  0  0  0  0  0
   40.8313   81.2728   48.6640 O   0  0  0  0  0  0  0  0  0  0  0  0
   39.6218   82.8854   49.9723 C   0  0  0  0  0  0  0  0  0  0  0  0
   40.1964   84.2633   49.8475 C   0  0  0  0  0  0  0  0  0  0  0  0
   41.5841   84.1449   49.7735 O   0  0  0  0  0  0  0  0  0  0  0  0
   38.1931   82.8828   50.1591 N   0  0  0  0  0  0  0  0  0  0  0  0
   37.3679   81.7353   50.0019 C   0  0  0  0  0  0  0  0  0  0  0  0
   37.9113   80.6934   49.5864 O   0  0  0  0  0  0  0  0  0  0  0  0
   35.9254   81.7802   50.3193 C   0  0  0  0  0  0  0  0  0  0  0  0
   35.0146   81.8454   49.2851 C   0  0  0  0  0  0  0  0  0  0  0  0
   33.6660   81.8880   49.5785 C   0  0  0  0  0  0  0  0  0  0  0  0
   33.2735   81.8643   50.8866 C   0  0  0  0  0  0  0  0  0  0  0  0
   31.8542   81.9080   51.2029 C   0  0  0  0  0  0  0  0  0  0  0  0
   30.8712   81.8271   50.2589 C   0  0  0  0  0  0  0  0  0  0  0  0
   29.5128   81.8729   50.6068 C   0  0  0  0  0  0  0  0  0  0  0  0
   28.5567   81.7910   49.6567 F   0  0  0  0  0  0  0  0  0  0  0  0
   29.1793   82.0027   51.9350 C   0  0  0  0  0  0  0  0  0  0  0  0
   30.1623   82.0867   52.9112 C   0  0  0  0  0  0  0  0  0  0  0  0
   29.8283   82.2154   54.2265 F   0  0  0  0  0  0  0  0  0  0  0  0
   31.4951   82.0395   52.5471 C   0  0  0  0  0  0  0  0  0  0  0  0
   34.2062   81.7999   51.8629 N   0  0  0  0  0  0  0  0  0  0  0  0
   35.5238   81.7563   51.6430 C   0  0  0  0  0  0  0  0  0  0  0  0
   36.5175   81.6865   52.7137 C   0  0  0  0  0  0  0  0  0  0  0  0
   35.9746   81.9730   54.1189 C   0  0  0  0  0  0  0  0  0  0  0  0
   36.8922   80.8634   54.6106 C   0  0  0  0  0  0  0  0  0  0  0  0
   36.7810   80.2682   53.1991 C   0  0  0  0  0  0  0  0  0  0  0  0
  1  2  1  0
  2  3  2  0
  2  4  1  0
  4  5  1  0
  5  6  1  0
  4  7  1  0
  7  8  1  0
  8  9  2  0
  8 10  1  0
 10 11  2  0
 11 12  1  0
 12 13  2  0
 13 14  1  0
 14 15  2  0
 15 16  1  0
 16 17  1  0
 16 18  2  0
 18 19  1  0
 19 20  1  0
 19 21  2  0
 13 22  1  0
 22 23  2  0
 23 24  1  0
 24 25  1  0
 25 26  1  0
 26 27  1  0
 23 10  1  0
 27 24  1  0
 21 14  1  0
M  END
$$$$
