
     RDKit          3D

 27 30  0  0  0  0  0  0  0  0999 V2000
   16.9802   60.8236   13.9879 N   0  0  0  0  0  0  0  0  0  0  0  0
   16.3296   60.0602   13.4693 C   0  0  0  0  0  0  0  0  0  0  0  0
   15.4711   59.0882   12.8020 C   0  0  0  0  0  0  0  0  0  0  0  0
   14.5565   59.5065   11.8484 C   0  0  0  0  0  0  0  0  0  0  0  0
   13.7405   58.6247   11.2055 C   0  0  0  0  0  0  0  0  0  0  0  0
   13.8287   57.2704   11.5151 C   0  0  0  0  0  0  0  0  0  0  0  0
   13.1617   56.2011   11.0431 N   0  0  0  0  0  0  0  0  0  0  0  0
   13.6288   55.1138   11.6722 C   0  0  0  0  0  0  0  0  0  0  0  0
   14.6171   55.4751   12.5703 C   0  0  0  0  0  0  0  0  0  0  0  0
   15.3955   54.5819   13.4769 C   0  0  1  0  0  0  0  0  0  0  0  0
   14.4564   54.1406   14.5734 C   0  0  0  0  0  0  0  0  0  0  0  0
   15.2242   53.3290   15.6178 C   0  0  0  0  0  0  0  0  0  0  0  0
   16.1265   52.3486   14.9654 C   0  0  1  0  0  0  0  0  0  0  0  0
   16.4010   51.1249   15.5816 N   0  0  0  0  0  0  0  0  0  0  0  0
   16.0580   50.8583   16.9116 C   0  0  0  0  0  0  0  0  0  0  0  0
   15.6205   49.4505   17.1960 C   0  0  0  0  0  0  0  0  0  0  0  0
   15.2060   49.2605   18.6359 C   0  0  0  0  0  0  0  0  0  0  0  0
   15.8839   48.2428   19.3318 N   0  0  0  0  0  0  0  0  0  0  0  0
   16.6286   47.2863   18.6330 C   0  0  0  0  0  0  0  0  0  0  0  0
   16.6467   45.9088   19.2371 C   0  0  0  0  0  0  0  0  0  0  0  0
   15.9074   45.8329   20.4131 O   0  0  0  0  0  0  0  0  0  0  0  0
   16.3146   46.8483   21.2509 C   0  0  0  0  0  0  0  0  0  0  0  0
   15.7448   48.1481   20.7273 C   0  0  0  0  0  0  0  0  0  0  0  0
   15.6809   52.1038   13.5012 C   0  0  0  0  0  0  0  0  0  0  0  0
   15.9395   53.3744   12.7362 C   0  0  0  0  0  0  0  0  0  0  0  0
   14.7393   56.8453   12.4662 C   0  0  0  0  0  0  0  0  0  0  0  0
   15.5574   57.7640   13.1050 C   0  0  0  0  0  0  0  0  0  0  0  0
  1  2  3  0
  2  3  1  0
  3  4  2  0
  4  5  1  0
  5  6  2  0
  6  7  1  0
  7  8  1  0
  8  9  2  0
 10  9  1  6
 10 11  1  0
 11 12  1  0
 12 13  1  0
 13 14  1  1
 14 15  1  0
 15 16  1  0
 16 17  1  0
 17 18  1  0
 18 19  1  0
 19 20  1  0
 20 21  1  0
 21 22  1  0
 22 23  1  0
 13 24  1  0
 24 25  1  0
  9 26  1  0
 26 27  2  0
 27  3  1  0
 26  6  1  0
 25 10  1  0
 23 18  1  0
M  END
$$$$
