
     RDKit          3D

 17 18  0  0  0  0  0  0  0  0999 V2000
   13.7593   92.1487   64.5769 C   0  0  0  0  0  0  0  0  0  0  0  0
   13.2609   93.3511   63.8567 C   0  0  0  0  0  0  0  0  0  0  0  0
   14.1139   94.1182   63.0861 C   0  0  0  0  0  0  0  0  0  0  0  0
   13.6463   95.2345   62.4187 C   0  0  0  0  0  0  0  0  0  0  0  0
   12.3264   95.6302   62.4888 C   0  0  0  0  0  0  0  0  0  0  0  0
   11.8590   96.7961   61.7862 N   0  0  0  0  0  0  0  0  0  0  0  0
   12.4209   97.1885   60.5430 C   0  0  0  0  0  0  0  0  0  0  0  0
   13.4204   96.5626   60.1102 O   0  0  0  0  0  0  0  0  0  0  0  0
   11.8592   98.3019   59.7630 C   0  0  0  0  0  0  0  0  0  0  0  0
   12.4757   98.7133   58.6012 C   0  0  0  0  0  0  0  0  0  0  0  0
   11.9711   99.7302   57.8798 N   0  0  0  0  0  0  0  0  0  0  0  0
   10.8573  100.3901   58.2455 C   0  0  0  0  0  0  0  0  0  0  0  0
   10.3032  101.5155   57.4426 C   0  0  0  0  0  0  0  0  0  0  0  0
   10.2425   99.9698   59.4164 C   0  0  0  0  0  0  0  0  0  0  0  0
   10.7473   98.9472   60.1446 N   0  0  0  0  0  0  0  0  0  0  0  0
   11.4721   94.8666   63.2572 C   0  0  0  0  0  0  0  0  0  0  0  0
   11.9444   93.7538   63.9208 C   0  0  0  0  0  0  0  0  0  0  0  0
  1  2  1  0
  2  3  2  0
  3  4  1  0
  4  5  2  0
  5  6  1  0
  6  7  1  0
  7  8  2  0
  7  9  1  0
  9 10  2  0
 10 11  1  0
 11 12  2  0
 12 13  1  0
 12 14  1  0
 14 15  2  0
  5 16  1  0
 16 17  2  0
 17  2  1  0
 15  9  1  0
M  END
$$$$
