
     RDKit          3D

 23 24  0  0  0  0  0  0  0  0999 V2000
   14.4618   99.8366   55.5412 N   0  0  0  0  0  0  0  0  0  0  0  0
   13.6078   99.9239   56.3302 C   0  0  0  0  0  0  0  0  0  0  0  0
   12.5797  100.0293   57.3136 C   0  0  0  0  0  0  0  0  0  0  0  0
   11.5558  100.9516   57.1338 C   0  0  0  0  0  0  0  0  0  0  0  0
   10.5486  101.0820   58.0611 C   0  0  0  0  0  0  0  0  0  0  0  0
   10.5804  100.2704   59.1793 C   0  0  0  0  0  0  0  0  0  0  0  0
   11.5916   99.3487   59.3721 C   0  0  0  0  0  0  0  0  0  0  0  0
   11.5630   98.5524   60.5387 N   0  0  0  0  0  0  0  0  0  0  0  0
   12.4595   97.4397   60.6451 C   0  0  0  0  0  0  0  0  0  0  0  0
   13.2112   97.1167   59.6930 O   0  0  0  0  0  0  0  0  0  0  0  0
   12.5173   96.6728   61.8392 N   0  0  0  0  0  0  0  0  0  0  0  0
   13.4981   95.6280   62.0348 C   0  0  0  0  0  0  0  0  0  0  0  0
   12.8584   94.3372   62.4958 C   0  0  0  0  0  0  0  0  0  0  0  0
   13.8849   93.2786   62.8016 C   0  0  0  0  0  0  0  0  0  0  0  0
   13.4209   92.3235   63.7732 N   0  0  0  0  0  0  0  0  0  0  0  0
   14.0776   92.3428   65.0541 C   0  0  0  0  0  0  0  0  0  0  0  0
   13.0076   92.7467   66.0777 C   0  0  0  0  0  0  0  0  0  0  0  0
   12.1714   91.5272   66.4059 C   0  0  0  0  0  0  0  0  0  0  0  0
   11.0212   91.3512   65.4498 C   0  0  0  0  0  0  0  0  0  0  0  0
   11.4617   90.5970   64.2029 C   0  0  0  0  0  0  0  0  0  0  0  0
   12.3728   91.4664   63.3762 C   0  0  0  0  0  0  0  0  0  0  0  0
   12.1713   91.4265   62.1248 O   0  0  0  0  0  0  0  0  0  0  0  0
   12.5941   99.2292   58.4346 C   0  0  0  0  0  0  0  0  0  0  0  0
  1  2  3  0
  2  3  1  0
  3  4  2  0
  4  5  1  0
  5  6  2  0
  6  7  1  0
  7  8  1  0
  8  9  1  0
  9 10  2  0
  9 11  1  0
 11 12  1  0
 12 13  1  0
 13 14  1  0
 14 15  1  0
 15 16  1  0
 16 17  1  0
 17 18  1  0
 18 19  1  0
 19 20  1  0
 20 21  1  0
 21 22  2  0
  7 23  2  0
 23  3  1  0
 21 15  1  0
M  END
$$$$
