
     RDKit          3D

 19 21  0  0  0  0  0  0  0  0999 V2000
   12.9966   99.5019   56.3050 C   0  0  0  0  0  0  0  0  0  0  0  0
   13.3235   98.2322   56.7438 C   0  0  0  0  0  0  0  0  0  0  0  0
   12.9683   97.7627   57.9549 N   0  0  0  0  0  0  0  0  0  0  0  0
   12.2596   98.5483   58.7989 C   0  0  0  0  0  0  0  0  0  0  0  0
   11.8940   98.0587   60.0510 C   0  0  0  0  0  0  0  0  0  0  0  0
   12.2468   96.7496   60.4689 N   0  0  0  0  0  0  0  0  0  0  0  0
   11.7198   96.2658   61.7283 C   0  0  0  0  0  0  0  0  0  0  0  0
   12.7838   95.7150   62.6330 C   0  0  0  0  0  0  0  0  0  0  0  0
   12.5419   94.2271   62.8680 C   0  0  0  0  0  0  0  0  0  0  0  0
   12.1359   93.9613   64.2953 C   0  0  0  0  0  0  0  0  0  0  0  0
   12.9789   92.8484   64.8411 C   0  0  0  0  0  0  0  0  0  0  0  0
   14.4324   93.2851   64.7387 C   0  0  0  0  0  0  0  0  0  0  0  0
   14.7235   93.5900   63.2870 C   0  0  0  0  0  0  0  0  0  0  0  0
   13.6068   93.4589   62.4841 O   0  0  0  0  0  0  0  0  0  0  0  0
   11.1739   98.9258   60.8457 C   0  0  0  0  0  0  0  0  0  0  0  0
   10.8233  100.2013   60.4537 C   0  0  0  0  0  0  0  0  0  0  0  0
   11.1935  100.6591   59.2204 C   0  0  0  0  0  0  0  0  0  0  0  0
   11.9168   99.8225   58.3908 C   0  0  0  0  0  0  0  0  0  0  0  0
   12.2670  100.3287   57.1573 C   0  0  0  0  0  0  0  0  0  0  0  0
  1  2  2  0
  2  3  1  0
  3  4  2  0
  4  5  1  0
  5  6  1  0
  6  7  1  0
  7  8  1  0
  8  9  1  0
  9 10  1  0
 10 11  1  0
 11 12  1  0
 12 13  1  0
 13 14  1  0
  5 15  2  0
 15 16  1  0
 16 17  2  0
 17 18  1  0
 18 19  2  0
 19  1  1  0
 18  4  1  0
 14  9  1  0
M  END
$$$$
