
     RDKit          3D

 23 24  0  0  0  0  0  0  0  0999 V2000
   13.5679   53.9920   13.1058 C   0  0  0  0  0  0  0  0  0  0  0  0
   14.7660   54.7819   12.7162 C   0  0  0  0  0  0  0  0  0  0  0  0
   14.3438   56.1983   12.3856 C   0  0  0  0  0  0  0  0  0  0  0  0
   15.5902   56.9285   11.9011 C   0  0  0  0  0  0  0  0  0  0  0  0
   16.6459   56.9697   12.9725 C   0  0  0  0  0  0  0  0  0  0  0  0
   16.8115   58.3763   13.4184 C   0  0  0  0  0  0  0  0  0  0  0  0
   17.2909   59.3837   12.5407 N   0  0  0  0  0  0  0  0  0  0  0  0
   16.5331   58.7387   14.5988 O   0  0  0  0  0  0  0  0  0  0  0  0
   16.2045   56.1462   14.1847 C   0  0  0  0  0  0  0  0  0  0  0  0
   15.8143   54.8362   13.7097 N   0  0  0  0  0  0  0  0  0  0  0  0
   16.4806   53.7041   14.2404 C   0  0  0  0  0  0  0  0  0  0  0  0
   17.3692   53.8472   15.1233 O   0  0  0  0  0  0  0  0  0  0  0  0
   16.1792   52.3176   13.7993 C   0  0  0  0  0  0  0  0  0  0  0  0
   16.9346   51.3162   14.6603 C   0  0  0  0  0  0  0  0  0  0  0  0
   16.1546   51.1234   15.9569 C   0  0  0  0  0  0  0  0  0  0  0  0
   15.9995   49.7509   16.1544 O   0  0  0  0  0  0  0  0  0  0  0  0
   15.2675   49.1767   17.1669 C   0  0  0  0  0  0  0  0  0  0  0  0
   15.9165   48.4461   18.1371 C   0  0  0  0  0  0  0  0  0  0  0  0
   15.2140   47.8448   19.1845 C   0  0  0  0  0  0  0  0  0  0  0  0
   13.8617   47.9985   19.2254 C   0  0  0  0  0  0  0  0  0  0  0  0
   13.1718   48.7134   18.2872 C   0  0  0  0  0  0  0  0  0  0  0  0
   11.8418   48.8523   18.3457 F   0  0  0  0  0  0  0  0  0  0  0  0
   13.8990   49.3022   17.2536 C   0  0  0  0  0  0  0  0  0  0  0  0
  1  2  1  0
  2  3  1  0
  3  4  1  0
  4  5  1  0
  5  6  1  0
  6  7  1  0
  6  8  2  0
  5  9  1  0
  9 10  1  0
 10 11  1  0
 11 12  2  0
 11 13  1  0
 13 14  1  0
 14 15  1  0
 15 16  1  0
 16 17  1  0
 17 18  2  0
 18 19  1  0
 19 20  2  0
 20 21  1  0
 21 22  1  0
 21 23  2  0
 10  2  1  0
 23 17  1  0
M  END
$$$$
