
     RDKit          3D

 30 32  0  0  0  0  0  0  0  0999 V2000
   11.0990   59.1840   11.2491 C   0  0  0  0  0  0  0  0  0  0  0  0
   12.0273   58.0846   11.6541 C   0  0  0  0  0  0  0  0  0  0  0  0
   13.1060   58.5657   12.6113 C   0  0  0  0  0  0  0  0  0  0  0  0
   14.0404   57.4834   12.8496 N   0  0  0  0  0  0  0  0  0  0  0  0
   13.6388   56.4837   13.6529 C   0  0  0  0  0  0  0  0  0  0  0  0
   12.5096   56.4422   14.1991 O   0  0  0  0  0  0  0  0  0  0  0  0
   14.4945   55.4236   13.9138 C   0  0  0  0  0  0  0  0  0  0  0  0
   14.4006   54.3140   14.6431 N   0  0  0  0  0  0  0  0  0  0  0  0
   15.5456   53.6393   14.5323 C   0  0  0  0  0  0  0  0  0  0  0  0
   15.8468   52.3461   15.1930 C   0  0  0  0  0  0  0  0  0  0  0  0
   15.0105   51.7977   16.1394 C   0  0  0  0  0  0  0  0  0  0  0  0
   15.2955   50.5853   16.7569 C   0  0  0  0  0  0  0  0  0  0  0  0
   14.2246   49.9082   17.9519 S   0  0  0  0  0  6  0  0  0  0  0  0
   13.2910   50.9701   18.4596 O   0  0  0  0  0  0  0  0  0  0  0  0
   13.4052   48.7958   17.3715 O   0  0  0  0  0  0  0  0  0  0  0  0
   15.1588   49.3778   19.2409 O   0  0  0  0  0  0  0  0  0  0  0  0
   16.4523   49.9122   16.4097 C   0  0  0  0  0  0  0  0  0  0  0  0
   17.3052   50.4383   15.4668 C   0  0  0  0  0  0  0  0  0  0  0  0
   16.9923   51.6500   14.8690 C   0  0  0  0  0  0  0  0  0  0  0  0
   17.8285   52.2020   13.9203 O   0  0  0  0  0  0  0  0  0  0  0  0
   18.9291   51.5795   13.3378 C   0  0  0  0  0  0  0  0  0  0  0  0
   19.6589   52.4031   12.3289 C   0  0  0  0  0  0  0  0  0  0  0  0
   16.3532   54.3352   13.7298 N   0  0  0  0  0  0  0  0  0  0  0  0
   15.7356   55.4524   13.3238 C   0  0  0  0  0  0  0  0  0  0  0  0
   16.1368   56.4555   12.5187 N   0  0  0  0  0  0  0  0  0  0  0  0
   17.4592   56.3950   11.9464 C   0  0  0  0  0  0  0  0  0  0  0  0
   17.5603   55.3739   10.8396 C   0  0  0  0  0  0  0  0  0  0  0  0
   18.7430   55.7092    9.9552 C   0  0  0  0  0  0  0  0  0  0  0  0
   15.2697   57.4575   12.2989 C   0  0  0  0  0  0  0  0  0  0  0  0
   15.6127   58.4071   11.5537 O   0  0  0  0  0  0  0  0  0  0  0  0
  1  2  1  0
  2  3  1  0
  3  4  1  0
  4  5  1  0
  5  6  2  0
  5  7  1  0
  7  8  1  0
  8  9  2  0
  9 10  1  0
 10 11  2  0
 11 12  1  0
 12 13  1  0
 13 14  2  0
 13 15  2  0
 13 16  1  0
 12 17  2  0
 17 18  1  0
 18 19  2  0
 19 20  1  0
 20 21  1  0
 21 22  1  0
  9 23  1  0
 23 24  1  0
 24 25  1  0
 25 26  1  0
 26 27  1  0
 27 28  1  0
 25 29  1  0
 29 30  2  0
 29  4  1  0
 24  7  2  0
 19 10  1  0
M  END
$$$$
