
     RDKit          3D

 22 25  0  0  0  0  0  0  0  0999 V2000
   11.7230   58.0638   11.3638 C   0  0  0  0  0  0  0  0  0  0  0  0
   12.9066   57.4899   11.7757 C   0  0  0  0  0  0  0  0  0  0  0  0
   13.8877   58.3213   12.2900 C   0  0  0  0  0  0  0  0  0  0  0  0
   15.1256   57.8097   12.7320 N   0  0  0  0  0  0  0  0  0  0  0  0
   16.0213   58.4860   13.6409 C   0  0  0  0  0  0  0  0  0  0  0  0
   16.6170   57.2956   14.4049 C   0  0  0  0  0  0  0  0  0  0  0  0
   16.8885   56.3416   13.2617 C   0  0  0  0  0  0  0  0  0  0  0  0
   16.9543   54.9881   13.7828 N   0  0  0  0  0  0  0  0  0  0  0  0
   17.2678   53.8781   13.0947 C   0  0  0  0  0  0  0  0  0  0  0  0
   17.2282   52.7908   13.9099 N   0  0  0  0  0  0  0  0  0  0  0  0
   16.8806   53.2403   15.1368 C   0  0  0  0  0  0  0  0  0  0  0  0
   16.7071   52.4207   16.3688 C   0  0  0  0  0  0  0  0  0  0  0  0
   15.9078   51.2466   16.1014 N   0  0  0  0  0  0  0  0  0  0  0  0
   14.5782   51.2938   15.8933 C   0  0  0  0  0  0  0  0  0  0  0  0
   14.1704   49.9972   15.6742 C   0  0  0  0  0  0  0  0  0  0  0  0
   15.2653   49.2096   15.7568 N   0  0  0  0  0  0  0  0  0  0  0  0
   16.3454   49.9610   16.0193 C   0  0  0  0  0  0  0  0  0  0  0  0
   16.7137   54.6006   15.0466 C   0  0  0  0  0  0  0  0  0  0  0  0
   15.7009   56.5396   12.3548 C   0  0  0  0  0  0  0  0  0  0  0  0
   13.6380   59.6912   12.3684 C   0  0  0  0  0  0  0  0  0  0  0  0
   12.4444   60.2315   11.9479 C   0  0  0  0  0  0  0  0  0  0  0  0
   11.5214   59.3855   11.4555 N   0  0  0  0  0  0  0  0  0  0  0  0
  1  2  2  0
  2  3  1  0
  3  4  1  0
  4  5  1  0
  5  6  1  0
  6  7  1  0
  7  8  1  0
  8  9  1  0
  9 10  2  0
 10 11  1  0
 11 12  1  0
 12 13  1  0
 13 14  1  0
 14 15  2  0
 15 16  1  0
 16 17  2  0
 11 18  2  0
  7 19  1  0
  3 20  2  0
 20 21  1  0
 21 22  2  0
 22  1  1  0
 19  4  1  0
 18  8  1  0
 17 13  1  0
M  END
$$$$
