
     RDKit          3D

 20 22  0  0  0  0  0  0  0  0999 V2000
   11.2566  101.6189   56.4029 C   0  0  0  0  0  0  0  0  0  0  0  0
   11.6701  100.5679   57.3821 C   0  0  0  0  0  0  0  0  0  0  0  0
   11.2856  100.5169   58.6793 N   0  0  0  0  0  0  0  0  0  0  0  0
   11.7866   99.4697   59.2515 O   0  0  0  0  0  0  0  0  0  0  0  0
   12.5024   98.8003   58.3900 C   0  0  0  0  0  0  0  0  0  0  0  0
   13.2105   97.5428   58.7440 C   0  0  0  0  0  0  0  0  0  0  0  0
   12.4612   99.4646   57.1717 C   0  0  0  0  0  0  0  0  0  0  0  0
   13.1877   99.0064   55.9651 C   0  0  0  0  0  0  0  0  0  0  0  0
   14.1970   99.8995   55.4821 N   0  0  0  0  0  0  0  0  0  0  0  0
   14.4425  100.9349   56.4116 C   0  0  0  0  0  0  0  0  0  0  0  0
   15.4121  101.9901   55.9238 C   0  0  0  0  0  0  0  0  0  0  0  0
   16.3927  101.5208   55.0110 N   0  0  0  0  0  0  0  0  0  0  0  0
   16.2078  100.9299   53.7399 C   0  0  0  0  0  0  0  0  0  0  0  0
   17.1060  101.1302   52.8574 O   0  0  0  0  0  0  0  0  0  0  0  0
   15.0854  100.0784   53.2553 C   0  0  0  0  0  0  0  0  0  0  0  0
   14.8014  100.5206   51.8308 C   0  0  0  0  0  0  0  0  0  0  0  0
   13.5630   99.8681   51.2638 C   0  0  0  0  0  0  0  0  0  0  0  0
   12.4184  100.2331   52.1896 C   0  0  0  0  0  0  0  0  0  0  0  0
   12.7442   99.5596   53.5347 C   0  0  0  0  0  0  0  0  0  0  0  0
   13.8996  100.3203   54.1549 C   0  0  0  0  0  0  0  0  0  0  0  0
  1  2  1  0
  2  3  2  0
  3  4  1  0
  4  5  1  0
  5  6  1  0
  5  7  2  0
  7  8  1  0
  8  9  1  0
  9 10  1  0
 10 11  1  0
 11 12  1  0
 12 13  1  0
 13 14  2  0
 13 15  1  0
 15 16  1  0
 16 17  1  0
 17 18  1  0
 18 19  1  0
 19 20  1  0
  7  2  1  0
 20  9  1  0
 20 15  1  0
M  END
$$$$
