
     RDKit          3D

 28 30  0  0  0  0  0  0  0  0999 V2000
   31.2968   82.5030   49.3489 C   0  0  0  0  0  0  0  0  0  0  0  0
   32.5577   82.3053   49.9659 O   0  0  0  0  0  0  0  0  0  0  0  0
   33.7037   82.2149   49.1525 C   0  0  0  0  0  0  0  0  0  0  0  0
   33.5676   82.1114   47.7862 C   0  0  0  0  0  0  0  0  0  0  0  0
   34.6724   82.0215   46.9659 C   0  0  0  0  0  0  0  0  0  0  0  0
   34.5450   81.9127   45.5336 C   0  0  0  0  0  0  0  0  0  0  0  0
   33.6665   82.3149   44.7544 N   0  0  0  0  0  0  0  0  0  0  0  0
   33.4189   82.2803   43.4260 N   0  0  0  0  0  0  0  0  0  0  0  0
   32.3148   81.7205   42.8512 C   0  0  0  0  0  0  0  0  0  0  0  0
   31.1789   81.0623   43.5601 C   0  0  0  0  0  0  0  0  0  0  0  0
   32.4668   81.8861   41.5333 N   0  0  0  0  0  0  0  0  0  0  0  0
   33.6034   82.5146   41.2998 N   0  0  0  0  0  0  0  0  0  0  0  0
   34.2357   82.7830   42.4517 C   0  0  0  0  0  0  0  0  0  0  0  0
   35.5417   83.4753   42.6559 C   0  0  0  0  0  0  0  0  0  0  0  0
   35.8934   82.0400   47.5711 C   0  0  0  0  0  0  0  0  0  0  0  0
   36.0677   82.1440   48.9567 C   0  0  0  0  0  0  0  0  0  0  0  0
   37.3600   82.1531   49.4689 O   0  0  0  0  0  0  0  0  0  0  0  0
   38.4914   82.0163   48.6339 C   0  0  0  0  0  0  0  0  0  0  0  0
   34.9519   82.2313   49.7385 C   0  0  0  0  0  0  0  0  0  0  0  0
   35.0615   82.3348   51.1005 O   0  0  0  0  0  0  0  0  0  0  0  0
   35.3140   81.2680   51.9822 C   0  0  0  0  0  0  0  0  0  0  0  0
   36.2558   81.6764   53.0946 C   0  0  0  0  0  0  0  0  0  0  0  0
   36.4724   80.4745   53.9724 C   0  0  0  0  0  0  0  0  0  0  0  0
   36.4475   79.1876   53.4806 C   0  0  0  0  0  0  0  0  0  0  0  0
   36.6493   78.0962   54.3060 C   0  0  0  0  0  0  0  0  0  0  0  0
   36.8830   78.2747   55.6574 C   0  0  0  0  0  0  0  0  0  0  0  0
   36.9078   79.5571   56.1473 C   0  0  0  0  0  0  0  0  0  0  0  0
   36.7069   80.6386   55.3242 C   0  0  0  0  0  0  0  0  0  0  0  0
  1  2  1  0
  2  3  1  0
  3  4  2  0
  4  5  1  0
  5  6  1  0
  6  7  2  3
  7  8  1  0
  8  9  1  0
  9 10  1  0
  9 11  2  0
 11 12  1  0
 12 13  2  0
 13 14  1  0
  5 15  2  0
 15 16  1  0
 16 17  1  0
 17 18  1  0
 16 19  2  0
 19 20  1  0
 20 21  1  0
 21 22  1  0
 22 23  1  0
 23 24  2  0
 24 25  1  0
 25 26  2  0
 26 27  1  0
 27 28  2  0
 19  3  1  0
 28 23  1  0
 13  8  1  0
M  END
$$$$
