
     RDKit          3D

 26 28  0  0  0  0  0  0  0  0999 V2000
   33.4150   82.0390   49.0505 O   0  0  0  0  0  0  0  0  0  0  0  0
   33.2919   81.8571   50.2800 C   0  0  0  0  0  0  0  0  0  0  0  0
   31.9468   81.8776   50.8339 C   0  0  0  0  0  0  0  0  0  0  0  0
   30.8434   81.5146   50.0512 C   0  0  0  0  0  0  0  0  0  0  0  0
   29.5770   81.5316   50.5664 C   0  0  0  0  0  0  0  0  0  0  0  0
   29.3406   81.9024   51.8615 C   0  0  0  0  0  0  0  0  0  0  0  0
   28.0782   81.9267   52.3992 F   0  0  0  0  0  0  0  0  0  0  0  0
   30.4173   82.2641   52.6488 C   0  0  0  0  0  0  0  0  0  0  0  0
   30.1426   82.6292   53.9411 F   0  0  0  0  0  0  0  0  0  0  0  0
   31.6946   82.2480   52.1341 C   0  0  0  0  0  0  0  0  0  0  0  0
   34.4497   81.6414   51.0826 N   0  0  0  0  0  0  0  0  0  0  0  0
   34.3771   81.4833   52.5128 C   0  0  0  0  0  0  0  0  0  0  0  0
   35.5341   80.6425   52.9669 C   0  0  0  0  0  0  0  0  0  0  0  0
   36.7504   81.3653   52.6199 N   0  0  0  0  0  0  0  0  0  0  0  0
   37.7947   81.4570   53.5522 C   0  0  0  0  0  0  0  0  0  0  0  0
   37.6273   81.1970   54.7845 O   0  0  0  0  0  0  0  0  0  0  0  0
   39.1527   81.8553   53.1968 C   0  0  0  0  0  0  0  0  0  0  0  0
   39.9725   81.1565   52.3593 C   0  0  0  0  0  0  0  0  0  0  0  0
   41.2692   81.5620   52.0385 C   0  0  0  0  0  0  0  0  0  0  0  0
   41.7427   82.7305   52.5997 C   0  0  0  0  0  0  0  0  0  0  0  0
   43.3732   83.2696   52.2155 Cl  0  0  0  0  0  0  0  0  0  0  0  0
   40.9324   83.4551   53.4502 C   0  0  0  0  0  0  0  0  0  0  0  0
   39.6553   83.0359   53.7527 C   0  0  0  0  0  0  0  0  0  0  0  0
   38.6405   83.9670   54.8356 Cl  0  0  0  0  0  0  0  0  0  0  0  0
   36.8913   81.9880   51.3173 C   0  0  0  0  0  0  0  0  0  0  0  0
   35.7303   81.5974   50.4246 C   0  0  0  0  0  0  0  0  0  0  0  0
  1  2  2  0
  2  3  1  0
  3  4  2  0
  4  5  1  0
  5  6  2  0
  6  7  1  0
  6  8  1  0
  8  9  1  0
  8 10  2  0
  2 11  1  0
 11 12  1  0
 12 13  1  0
 13 14  1  0
 14 15  1  0
 15 16  2  0
 15 17  1  0
 17 18  2  0
 18 19  1  0
 19 20  2  0
 20 21  1  0
 20 22  1  0
 22 23  2  0
 23 24  1  0
 14 25  1  0
 25 26  1  0
 10  3  1  0
 26 11  1  0
 23 17  1  0
M  END
$$$$
