
     RDKit          3D

 29 32  0  0  0  0  0  0  0  0999 V2000
   12.1486  102.0335   60.7868 C   0  0  0  0  0  0  0  0  0  0  0  0
   12.6780  100.6182   60.6558 C   0  0  0  0  0  0  0  0  0  0  0  0
   12.7781  100.0720   62.0725 C   0  0  0  0  0  0  0  0  0  0  0  0
   11.6759   99.8384   59.8482 C   0  0  0  0  0  0  0  0  0  0  0  0
   12.1471   98.4169   59.6557 C   0  0  0  0  0  0  0  0  0  0  0  0
   11.2071   97.4246   60.2267 C   0  0  0  0  0  0  0  0  0  0  0  0
    9.8907   97.3022   59.9251 N   0  0  0  0  0  0  0  0  0  0  0  0
    9.3464   96.3180   60.6083 N   0  0  0  0  0  0  0  0  0  0  0  0
   10.3256   95.7996   61.3600 N   0  0  0  0  0  0  0  0  0  0  0  0
   11.4591   96.4766   61.1254 N   0  0  0  0  0  0  0  0  0  0  0  0
   12.7345   96.2027   61.7586 C   0  0  0  0  0  0  0  0  0  0  0  0
   12.4393   95.7453   63.1565 C   0  0  0  0  0  0  0  0  0  0  0  0
   13.5975   95.1357   63.8726 C   0  0  0  0  0  0  0  0  0  0  0  0
   14.0367   93.9294   63.0708 C   0  0  0  0  0  0  0  0  0  0  0  0
   14.4084   94.3080   61.6599 C   0  0  0  0  0  0  0  0  0  0  0  0
   13.3889   95.1200   60.9618 C   0  0  0  0  0  0  0  0  0  0  0  0
   12.5853   98.1214   58.3259 N   0  0  0  0  0  0  0  0  0  0  0  0
   11.5764   97.6348   57.4461 C   0  0  0  0  0  0  0  0  0  0  0  0
   11.4577   98.3312   56.1517 C   0  0  0  0  0  0  0  0  0  0  0  0
   12.7058   98.7218   55.5353 N   0  0  0  0  0  0  0  0  0  0  0  0
   12.8046   99.0021   54.1673 C   0  0  0  0  0  0  0  0  0  0  0  0
   11.8307   98.8770   53.4027 O   0  0  0  0  0  0  0  0  0  0  0  0
   14.0791   99.4535   53.6080 C   0  0  0  0  0  0  0  0  0  0  0  0
   15.2688   99.6526   54.2747 C   0  0  0  0  0  0  0  0  0  0  0  0
   16.2100  100.0773   53.3638 C   0  0  0  0  0  0  0  0  0  0  0  0
   15.5504  100.1234   52.1569 C   0  0  0  0  0  0  0  0  0  0  0  0
   14.3193   99.7542   52.3428 O   0  0  0  0  0  0  0  0  0  0  0  0
   13.8694   98.8185   56.3736 C   0  0  0  0  0  0  0  0  0  0  0  0
   13.4138   99.1457   57.7720 C   0  0  0  0  0  0  0  0  0  0  0  0
  1  2  1  0
  2  3  1  0
  2  4  1  0
  4  5  1  0
  5  6  1  0
  6  7  2  0
  7  8  1  0
  8  9  2  0
  9 10  1  0
 10 11  1  0
 11 12  1  0
 12 13  1  0
 13 14  1  0
 14 15  1  0
 15 16  1  0
  5 17  1  0
 17 18  1  0
 18 19  1  0
 19 20  1  0
 20 21  1  0
 21 22  2  0
 21 23  1  0
 23 24  2  0
 24 25  1  0
 25 26  2  0
 26 27  1  0
 20 28  1  0
 28 29  1  0
 10  6  1  0
 16 11  1  0
 29 17  1  0
 27 23  1  0
M  END
$$$$
