
     RDKit          3D

 25 27  0  0  0  0  0  0  0  0999 V2000
    8.0863   99.7445   63.7195 C   0  0  0  0  0  0  0  0  0  0  0  0
    9.1162   99.0458   63.0555 O   0  0  0  0  0  0  0  0  0  0  0  0
    9.6135   99.4778   61.8139 C   0  0  0  0  0  0  0  0  0  0  0  0
    9.0614  100.5624   61.1552 C   0  0  0  0  0  0  0  0  0  0  0  0
    9.5854  100.9585   59.9236 C   0  0  0  0  0  0  0  0  0  0  0  0
   10.6478  100.2851   59.3507 C   0  0  0  0  0  0  0  0  0  0  0  0
   11.1369  100.7111   58.1284 O   0  0  0  0  0  0  0  0  0  0  0  0
   10.7396  101.9362   57.5742 C   0  0  0  0  0  0  0  0  0  0  0  0
   11.2168   99.1974   59.9903 C   0  0  0  0  0  0  0  0  0  0  0  0
   10.6675   98.8361   61.2108 C   0  0  0  0  0  0  0  0  0  0  0  0
   11.4032   97.7471   61.6316 C   0  0  0  0  0  0  0  0  0  0  0  0
   12.3652   97.4604   60.6974 C   0  0  0  0  0  0  0  0  0  0  0  0
   13.3301   96.3716   60.8072 C   0  0  0  0  0  0  0  0  0  0  0  0
   14.2835   96.3544   60.0182 O   0  0  0  0  0  0  0  0  0  0  0  0
   13.2243   95.3541   61.7587 N   0  0  0  0  0  0  0  0  0  0  0  0
   14.1643   94.4066   62.2363 C   0  0  0  0  0  0  0  0  0  0  0  0
   13.6904   93.3873   63.1904 C   0  0  0  0  0  0  0  0  0  0  0  0
   12.6329   93.6255   64.0456 C   0  0  0  0  0  0  0  0  0  0  0  0
   12.1827   92.6171   64.8511 C   0  0  0  0  0  0  0  0  0  0  0  0
   12.7141   91.3445   64.8801 C   0  0  0  0  0  0  0  0  0  0  0  0
   13.7693   91.1290   64.0202 C   0  0  0  0  0  0  0  0  0  0  0  0
   14.2579   92.1406   63.1804 C   0  0  0  0  0  0  0  0  0  0  0  0
   15.6848   91.7561   62.2113 Cl  0  0  0  0  0  0  0  0  0  0  0  0
   12.2453   98.3431   59.7064 N   0  0  0  0  0  0  0  0  0  0  0  0
   13.0398   98.4420   58.4921 C   0  0  0  0  0  0  0  0  0  0  0  0
  1  2  1  0
  2  3  1  0
  3  4  2  0
  4  5  1  0
  5  6  2  0
  6  7  1  0
  7  8  1  0
  6  9  1  0
  9 10  2  0
 10 11  1  0
 11 12  2  0
 12 13  1  0
 13 14  2  0
 13 15  1  0
 15 16  1  0
 16 17  1  0
 17 18  2  0
 18 19  1  0
 19 20  2  0
 20 21  1  0
 21 22  2  0
 22 23  1  0
 12 24  1  0
 24 25  1  0
 10  3  1  0
 22 17  1  0
 24  9  1  0
M  END
$$$$
