
     RDKit          3D

 24 27  0  0  0  0  0  0  0  0999 V2000
   14.2888   92.3439   64.1715 C   0  0  0  0  0  0  0  0  0  0  0  0
   13.0765   92.9893   64.1681 C   0  0  0  0  0  0  0  0  0  0  0  0
   12.8353   94.0491   63.2815 C   0  0  0  0  0  0  0  0  0  0  0  0
   13.7796   94.4918   62.3858 C   0  0  0  0  0  0  0  0  0  0  0  0
   13.6146   95.5160   61.4980 O   0  0  0  0  0  0  0  0  0  0  0  0
   13.0835   96.7690   61.6029 C   0  0  0  0  0  0  0  0  0  0  0  0
   12.4812   97.3216   60.3676 C   0  0  0  0  0  0  0  0  0  0  0  0
   11.3126   96.8417   59.8781 N   0  0  0  0  0  0  0  0  0  0  0  0
   11.0210   97.5069   58.8186 O   0  0  0  0  0  0  0  0  0  0  0  0
   11.9294   98.4133   58.5623 C   0  0  0  0  0  0  0  0  0  0  0  0
   11.8707   99.3379   57.4048 C   0  0  0  0  0  0  0  0  0  0  0  0
   13.1876  100.0683   57.3163 C   0  0  0  0  0  0  0  0  0  0  0  0
   13.6537  100.1007   55.8852 C   0  0  0  0  0  0  0  0  0  0  0  0
   14.2086  101.1635   55.2014 C   0  0  0  0  0  0  0  0  0  0  0  0
   14.4983  100.8029   53.9328 N   0  0  0  0  0  0  0  0  0  0  0  0
   15.0361  101.4343   52.8733 C   0  0  0  0  0  0  0  0  0  0  0  0
   15.2304  100.8209   51.6529 C   0  0  0  0  0  0  0  0  0  0  0  0
   14.8405   99.4966   51.5582 C   0  0  0  0  0  0  0  0  0  0  0  0
   14.3094   98.8948   52.6265 N   0  0  0  0  0  0  0  0  0  0  0  0
   14.1271   99.5086   53.8097 C   0  0  0  0  0  0  0  0  0  0  0  0
   13.6146   99.0876   54.9995 N   0  0  0  0  0  0  0  0  0  0  0  0
   12.8405   98.2896   59.5385 N   0  0  0  0  0  0  0  0  0  0  0  0
   15.0112   93.8087   62.4150 C   0  0  0  0  0  0  0  0  0  0  0  0
   15.2496   92.7722   63.2804 C   0  0  0  0  0  0  0  0  0  0  0  0
  1  2  2  0
  2  3  1  0
  3  4  2  0
  4  5  1  0
  5  6  1  0
  6  7  1  0
  7  8  2  0
  8  9  1  0
  9 10  1  0
 10 11  1  0
 11 12  1  0
 12 13  1  0
 13 14  2  0
 14 15  1  0
 15 16  1  0
 16 17  2  0
 17 18  1  0
 18 19  2  0
 19 20  1  0
 20 21  2  0
 10 22  2  0
  4 23  1  0
 23 24  2  0
 24  1  1  0
 22  7  1  0
 21 13  1  0
 20 15  1  0
M  END
$$$$
