
     RDKit          3D

 20 21  0  0  0  0  0  0  0  0999 V2000
   16.5674  101.8488   50.6242 C   0  0  0  0  0  0  0  0  0  0  0  0
   16.8333  100.9424   51.7961 C   0  0  0  0  0  0  0  0  0  0  0  0
   15.5982  100.6890   52.5853 C   0  0  0  0  0  0  0  0  0  0  0  0
   15.5104  101.2568   53.8386 C   0  0  0  0  0  0  0  0  0  0  0  0
   16.5732  102.0410   54.3268 O   0  0  0  0  0  0  0  0  0  0  0  0
   14.4037  101.0436   54.5656 N   0  0  0  0  0  0  0  0  0  0  0  0
   13.3662  100.3039   54.1429 C   0  0  0  0  0  0  0  0  0  0  0  0
   11.8891  100.0403   55.1434 S   0  0  0  0  0  0  0  0  0  0  0  0
   12.1925  100.7830   56.7967 C   0  0  0  0  0  0  0  0  0  0  0  0
   12.3236   99.6771   57.8002 C   0  0  0  0  0  0  0  0  0  0  0  0
   13.0669   98.5440   57.5164 C   0  0  0  0  0  0  0  0  0  0  0  0
   13.1877   97.5400   58.4448 C   0  0  0  0  0  0  0  0  0  0  0  0
   12.5986   97.5836   59.6870 C   0  0  0  0  0  0  0  0  0  0  0  0
   12.7341   96.5392   60.6484 C   0  0  0  0  0  0  0  0  0  0  0  0
   12.8660   95.6772   61.4520 N   0  0  0  0  0  0  0  0  0  0  0  0
   11.8463   98.7314   59.9713 C   0  0  0  0  0  0  0  0  0  0  0  0
   11.7237   99.7418   59.0382 C   0  0  0  0  0  0  0  0  0  0  0  0
   13.4729   99.7530   52.9049 N   0  0  0  0  0  0  0  0  0  0  0  0
   14.5455   99.9157   52.1110 C   0  0  0  0  0  0  0  0  0  0  0  0
   14.6571   99.3610   50.8599 O   0  0  0  0  0  0  0  0  0  0  0  0
  1  2  1  0
  2  3  1  0
  3  4  2  0
  4  5  1  0
  4  6  1  0
  6  7  2  0
  7  8  1  0
  8  9  1  0
  9 10  1  0
 10 11  2  0
 11 12  1  0
 12 13  2  0
 13 14  1  0
 14 15  3  0
 13 16  1  0
 16 17  2  0
  7 18  1  0
 18 19  2  0
 19 20  1  0
 19  3  1  0
 17 10  1  0
M  END
$$$$
