
     RDKit          3D

 35 39  0  0  0  0  0  0  0  0999 V2000
  -10.5433   61.6433   31.4009 O   0  0  0  0  0  0  0  0  0  0  0  0
   -9.3786   62.0301   31.6119 C   0  0  0  0  0  0  0  0  0  0  0  0
   -8.2747   61.2579   30.9958 C   0  0  0  0  0  0  0  0  0  0  0  0
   -8.7516   59.7179   29.9140 Se  0  0  0  0  0  2  0  0  0  0  0  0
   -8.8905   58.2253   31.0861 C   0  0  0  0  0  0  0  0  0  0  0  0
   -7.9287   57.2267   31.0993 C   0  0  0  0  0  0  0  0  0  0  0  0
   -8.0772   56.1743   31.9625 C   0  0  0  0  0  0  0  0  0  0  0  0
   -9.1505   56.0948   32.8036 C   0  0  0  0  0  0  0  0  0  0  0  0
  -10.1003   57.0908   32.7834 C   0  0  0  0  0  0  0  0  0  0  0  0
   -9.9803   58.1586   31.9300 C   0  0  0  0  0  0  0  0  0  0  0  0
   -7.0376   61.6136   31.1761 C   0  0  0  0  0  0  0  0  0  0  0  0
   -5.6350   60.8024   30.5203 S   0  0  0  0  0  0  0  0  0  0  0  0
   -4.1177   61.2045   31.3472 C   0  0  0  0  0  0  0  0  0  0  0  0
   -2.9634   60.3934   30.8017 C   0  0  0  0  0  0  0  0  0  0  0  0
   -2.3994   60.6746   29.5800 C   0  0  0  0  0  0  0  0  0  0  0  0
   -1.3378   59.8717   29.1591 C   0  0  0  0  0  0  0  0  0  0  0  0
   -0.8510   58.8342   29.9103 C   0  0  0  0  0  0  0  0  0  0  0  0
   -1.4445   58.5824   31.1338 C   0  0  0  0  0  0  0  0  0  0  0  0
   -2.5105   59.3691   31.5838 C   0  0  0  0  0  0  0  0  0  0  0  0
   -6.7472   62.8578   31.9851 C   0  0  0  0  0  0  0  0  0  0  0  0
   -6.6446   64.2183   30.7945 S   0  0  0  0  0  0  0  0  0  0  0  0
   -5.3871   65.3694   31.2845 C   0  0  0  0  0  0  0  0  0  0  0  0
   -5.7319   66.6570   31.6193 C   0  0  0  0  0  0  0  0  0  0  0  0
   -4.7522   67.5643   32.0039 C   0  0  0  0  0  0  0  0  0  0  0  0
   -3.4207   67.1814   32.0539 C   0  0  0  0  0  0  0  0  0  0  0  0
   -3.0795   65.8899   31.7175 C   0  0  0  0  0  0  0  0  0  0  0  0
   -4.0736   64.9811   31.3307 C   0  0  0  0  0  0  0  0  0  0  0  0
   -7.7596   63.1560   33.0400 C   0  0  0  0  0  0  0  0  0  0  0  0
   -9.0781   63.1615   32.4052 N   0  0  0  0  0  0  0  0  0  0  0  0
   -9.9909   64.2247   32.5914 C   0  0  0  0  0  0  0  0  0  0  0  0
  -10.3480   64.5344   33.8908 C   0  0  0  0  0  0  0  0  0  0  0  0
  -11.2385   65.5640   34.1277 C   0  0  0  0  0  0  0  0  0  0  0  0
  -11.7601   66.2716   33.0441 C   0  0  0  0  0  0  0  0  0  0  0  0
  -11.4181   65.9781   31.7625 C   0  0  0  0  0  0  0  0  0  0  0  0
  -10.5138   64.9295   31.5582 C   0  0  0  0  0  0  0  0  0  0  0  0
  1  2  2  0
  2  3  1  0
  3  4  1  0
  4  5  1  0
  5  6  2  0
  6  7  1  0
  7  8  2  0
  8  9  1  0
  9 10  2  0
  3 11  2  0
 11 12  1  0
 12 13  1  0
 13 14  1  0
 14 15  2  0
 15 16  1  0
 16 17  2  0
 17 18  1  0
 18 19  2  0
 11 20  1  0
 20 21  1  0
 21 22  1  0
 22 23  2  0
 23 24  1  0
 24 25  2  0
 25 26  1  0
 26 27  2  0
 20 28  1  0
 28 29  1  0
 29 30  1  0
 30 31  2  0
 31 32  1  0
 32 33  2  0
 33 34  1  0
 34 35  2  0
 29  2  1  0
 35 30  1  0
 10  5  1  0
 19 14  1  0
 27 22  1  0
M  END
$$$$
