
     RDKit          3D

 26 29  0  0  0  0  0  0  0  0999 V2000
  -12.6363   56.6262   31.7629 C   0  0  0  0  0  0  0  0  0  0  0  0
  -11.3266   56.9719   31.2290 N   0  0  0  0  0  0  0  0  0  0  0  0
  -10.5296   57.4572   32.3411 C   0  0  0  0  0  0  0  0  0  0  0  0
  -11.4568   58.0632   30.2848 C   0  0  0  0  0  0  0  0  0  0  0  0
  -10.9503   59.3678   30.8162 C   0  0  0  0  0  0  0  0  0  0  0  0
   -9.6505   59.0506   30.2633 N   0  0  0  0  0  0  0  0  0  0  0  0
   -8.2942   59.3922   30.5159 C   0  0  0  0  0  0  0  0  0  0  0  0
   -7.4081   58.6938   29.9496 O   0  0  0  0  0  0  0  0  0  0  0  0
   -7.8787   60.4939   31.3845 C   0  0  0  0  0  0  0  0  0  0  0  0
   -8.6401   61.7941   31.0878 C   0  0  0  0  0  0  0  0  0  0  0  0
   -7.6885   62.8929   31.4423 C   0  0  0  0  0  0  0  0  0  0  0  0
   -6.3546   62.2943   31.1611 C   0  0  0  0  0  0  0  0  0  0  0  0
   -6.4631   60.9333   31.1312 C   0  0  0  0  0  0  0  0  0  0  0  0
   -5.2061   60.4058   30.8699 C   0  0  0  0  0  0  0  0  0  0  0  0
   -4.7195   59.1188   30.7285 C   0  0  0  0  0  0  0  0  0  0  0  0
   -3.3914   58.8577   30.4634 C   0  0  0  0  0  0  0  0  0  0  0  0
   -2.7483   57.0548   30.2727 Br  0  0  0  0  0  0  0  0  0  0  0  0
   -2.5362   59.9324   30.3389 C   0  0  0  0  0  0  0  0  0  0  0  0
   -3.0149   61.2222   30.4789 C   0  0  0  0  0  0  0  0  0  0  0  0
   -4.3575   61.4816   30.7467 C   0  0  0  0  0  0  0  0  0  0  0  0
   -5.0542   62.6115   30.9228 N   0  0  0  0  0  0  0  0  0  0  0  0
   -4.5173   63.9466   30.8691 C   0  0  0  0  0  0  0  0  0  0  0  0
   -3.8516   64.3622   32.1631 C   0  0  0  0  0  0  0  0  0  0  0  0
   -3.3982   65.8138   31.9525 C   0  0  0  0  0  0  0  0  0  0  0  0
   -2.3742   66.1253   32.8084 F   0  0  0  0  0  0  0  0  0  0  0  0
  -10.3429   58.1979   29.2979 C   0  0  0  0  0  0  0  0  0  0  0  0
  1  2  1  0
  2  3  1  0
  2  4  1  0
  4  5  1  0
  5  6  1  0
  6  7  1  0
  7  8  2  0
  7  9  1  0
  9 10  1  0
 10 11  1  0
 11 12  1  0
 12 13  2  0
 13 14  1  0
 14 15  2  0
 15 16  1  0
 16 17  1  0
 16 18  2  0
 18 19  1  0
 19 20  2  0
 20 21  1  0
 21 22  1  0
 22 23  1  0
 23 24  1  0
 24 25  1  0
  6 26  1  0
 26  4  1  0
 13  9  1  0
 20 14  1  0
 21 12  1  0
M  END
$$$$
