
     RDKit          3D

 22 24  0  0  0  0  0  0  0  0999 V2000
   12.3492   56.8930   12.1525 O   0  0  0  0  0  0  0  0  0  0  0  0
   13.0212   57.9499   12.2753 C   0  0  0  0  0  0  0  0  0  0  0  0
   14.3151   57.9358   12.8518 N   0  0  0  0  0  0  0  0  0  0  0  0
   14.9141   56.6732   13.2800 C   0  0  0  0  0  0  0  0  0  0  0  0
   16.2391   56.8793   13.8813 C   0  0  0  0  0  0  0  0  0  0  0  0
   16.6416   57.7973   14.7825 N   0  0  0  0  0  0  0  0  0  0  0  0
   17.9234   57.6455   15.0697 N   0  0  0  0  0  0  0  0  0  0  0  0
   18.3625   56.5976   14.3317 C   0  0  0  0  0  0  0  0  0  0  0  0
   17.3231   56.1326   13.6050 N   0  0  0  0  0  0  0  0  0  0  0  0
   17.3949   55.0234   12.6968 C   0  0  0  0  0  0  0  0  0  0  0  0
   17.0568   55.2239   11.3754 C   0  0  0  0  0  0  0  0  0  0  0  0
   17.1136   54.1835   10.4754 C   0  0  0  0  0  0  0  0  0  0  0  0
   17.5014   52.9347   10.8553 C   0  0  0  0  0  0  0  0  0  0  0  0
   17.8401   52.7363   12.1814 C   0  0  0  0  0  0  0  0  0  0  0  0
   17.7850   53.7740   13.0863 C   0  0  0  0  0  0  0  0  0  0  0  0
   12.4265   59.1902   11.8053 C   0  0  0  0  0  0  0  0  0  0  0  0
   11.4375   59.2454   10.8562 C   0  0  0  0  0  0  0  0  0  0  0  0
   10.9529   60.4517   10.4897 N   0  0  0  0  0  0  0  0  0  0  0  0
   11.3763   61.6077   10.9945 C   0  0  0  0  0  0  0  0  0  0  0  0
   12.3730   61.5950   11.9546 C   0  0  0  0  0  0  0  0  0  0  0  0
   13.0229   63.2169   12.7167 Br  0  0  0  0  0  0  0  0  0  0  0  0
   12.8949   60.3902   12.3572 C   0  0  0  0  0  0  0  0  0  0  0  0
  1  2  2  0
  2  3  1  0
  3  4  1  0
  4  5  1  0
  5  6  2  0
  6  7  1  0
  7  8  2  0
  8  9  1  0
  9 10  1  0
 10 11  2  0
 11 12  1  0
 12 13  2  0
 13 14  1  0
 14 15  2  0
  2 16  1  0
 16 17  2  0
 17 18  1  0
 18 19  2  0
 19 20  1  0
 20 21  1  0
 20 22  2  0
  9  5  1  0
 15 10  1  0
 22 16  1  0
M  END
$$$$
