
     RDKit          3D

 25 27  0  0  0  0  0  0  0  0999 V2000
   17.6650   54.8468   11.0197 C   0  0  0  0  0  0  0  0  0  0  0  0
   16.8341   55.9255   11.4190 O   0  0  0  0  0  0  0  0  0  0  0  0
   16.0785   55.9066   12.5828 C   0  0  0  0  0  0  0  0  0  0  0  0
   15.9289   54.7315   13.3223 C   0  0  0  0  0  0  0  0  0  0  0  0
   15.1900   54.7114   14.4616 C   0  0  0  0  0  0  0  0  0  0  0  0
   14.9805   53.5977   15.2827 N   0  0  0  0  0  0  0  0  0  0  0  0
   15.9410   52.5767   15.5200 C   0  0  0  0  0  0  0  0  0  0  0  0
   17.1086   52.7538   15.0132 N   0  0  0  0  0  0  0  0  0  0  0  0
   15.6369   51.3849   16.3027 C   0  0  0  0  0  0  0  0  0  0  0  0
   14.3589   50.9024   16.4421 C   0  0  0  0  0  0  0  0  0  0  0  0
   14.1244   49.7720   17.1956 C   0  0  0  0  0  0  0  0  0  0  0  0
   15.1696   49.1036   17.8240 C   0  0  0  0  0  0  0  0  0  0  0  0
   14.9584   47.8902   18.6416 C   0  0  0  0  0  0  0  0  0  0  0  0
   16.0641   47.8103   19.6934 C   0  0  0  0  0  0  0  0  0  0  0  0
   13.6112   47.9418   19.2789 C   0  0  0  0  0  0  0  0  0  0  0  0
   16.4415   49.6098   17.6670 C   0  0  0  0  0  0  0  0  0  0  0  0
   16.6777   50.7377   16.9157 C   0  0  0  0  0  0  0  0  0  0  0  0
   14.5866   55.9101   14.8631 C   0  0  0  0  0  0  0  0  0  0  0  0
   14.7454   57.0550   14.1220 C   0  0  0  0  0  0  0  0  0  0  0  0
   15.4932   57.0903   12.9632 C   0  0  0  0  0  0  0  0  0  0  0  0
   15.6556   58.3160   12.1881 C   0  0  0  0  0  0  0  0  0  0  0  0
   16.1696   58.4794   10.9285 C   0  0  0  0  0  0  0  0  0  0  0  0
   16.0992   59.7957   10.6700 N   0  0  0  0  0  0  0  0  0  0  0  0
   15.5629   60.4099   11.7319 C   0  0  0  0  0  0  0  0  0  0  0  0
   15.3048   59.4966   12.6319 O   0  0  0  0  0  0  0  0  0  0  0  0
  1  2  1  0
  2  3  1  0
  3  4  2  0
  4  5  1  0
  5  6  1  0
  6  7  1  0
  7  8  2  0
  7  9  1  0
  9 10  2  0
 10 11  1  0
 11 12  2  0
 12 13  1  0
 13 14  1  0
 13 15  1  0
 12 16  1  0
 16 17  2  0
  5 18  2  0
 18 19  1  0
 19 20  2  0
 20 21  1  0
 21 22  2  0
 22 23  1  0
 23 24  2  0
 24 25  1  0
 20  3  1  0
 25 21  1  0
 17  9  1  0
M  END
$$$$
