
     RDKit          3D

 25 28  0  0  0  0  0  0  0  0999 V2000
    4.8236   96.2564   62.5235 C   0  0  0  0  0  0  0  0  0  0  0  0
    6.2904   96.0255   62.4773 C   0  0  0  0  0  0  0  0  0  0  0  0
    7.0965   96.6620   61.5638 C   0  0  0  0  0  0  0  0  0  0  0  0
    8.4521   96.4232   61.5507 C   0  0  0  0  0  0  0  0  0  0  0  0
    9.0659   95.5574   62.4263 C   0  0  0  0  0  0  0  0  0  0  0  0
   10.5047   95.3543   62.3538 C   0  0  0  0  0  0  0  0  0  0  0  0
   11.2221   95.9972   61.4159 N   0  0  0  0  0  0  0  0  0  0  0  0
   12.5601   95.8407   61.3090 C   0  0  0  0  0  0  0  0  0  0  0  0
   13.5263   96.6920   60.0634 S   0  0  0  0  0  0  0  0  0  0  0  0
   12.6647   98.1686   59.5422 C   0  0  0  0  0  0  0  0  0  0  0  0
   12.6582   98.5596   58.2048 C   0  0  0  0  0  0  0  0  0  0  0  0
   11.9674   99.7198   57.8707 C   0  0  0  0  0  0  0  0  0  0  0  0
   11.3062  100.4723   58.8071 C   0  0  0  0  0  0  0  0  0  0  0  0
   10.6560  101.5873   58.4110 F   0  0  0  0  0  0  0  0  0  0  0  0
   11.3184  100.0823   60.1098 C   0  0  0  0  0  0  0  0  0  0  0  0
   11.9989   98.9315   60.4671 C   0  0  0  0  0  0  0  0  0  0  0  0
   13.2259   95.0037   62.1757 C   0  0  0  0  0  0  0  0  0  0  0  0
   14.5947   94.8162   62.0997 C   0  0  0  0  0  0  0  0  0  0  0  0
   15.2488   93.9671   62.9837 C   0  0  0  0  0  0  0  0  0  0  0  0
   14.5191   93.3082   63.9437 C   0  0  0  0  0  0  0  0  0  0  0  0
   13.1720   93.5159   63.9905 C   0  0  0  0  0  0  0  0  0  0  0  0
   12.4934   94.3485   63.1320 C   0  0  0  0  0  0  0  0  0  0  0  0
   11.1631   94.5399   63.1949 N   0  0  0  0  0  0  0  0  0  0  0  0
    8.2563   94.9220   63.3391 C   0  0  0  0  0  0  0  0  0  0  0  0
    6.8784   95.1535   63.3655 C   0  0  0  0  0  0  0  0  0  0  0  0
  1  2  1  0
  2  3  2  0
  3  4  1  0
  4  5  2  0
  5  6  1  0
  6  7  2  0
  7  8  1  0
  8  9  1  0
  9 10  1  0
 10 11  2  0
 11 12  1  0
 12 13  2  0
 13 14  1  0
 13 15  1  0
 15 16  2  0
  8 17  2  0
 17 18  1  0
 18 19  2  0
 19 20  1  0
 20 21  2  0
 21 22  1  0
 22 23  2  0
  5 24  1  0
 24 25  2  0
 25  2  1  0
 23  6  1  0
 16 10  1  0
 22 17  1  0
M  END
$$$$
