
     RDKit          3D

 22 23  0  0  0  0  0  0  0  0999 V2000
   15.4395  100.3032   51.6059 C   0  0  0  0  0  0  0  0  0  0  0  0
   14.7925  100.9564   52.6999 N   0  0  0  0  0  0  0  0  0  0  0  0
   14.9849  102.3702   52.8986 C   0  0  0  0  0  0  0  0  0  0  0  0
   13.9696  100.2305   53.5835 C   0  0  0  0  0  0  0  0  0  0  0  0
   13.2994  100.8258   54.4771 O   0  0  0  0  0  0  0  0  0  0  0  0
   13.8425   98.7388   53.5180 C   0  0  0  0  0  0  0  0  0  0  0  0
   12.5366   98.1492   54.6072 S   0  0  0  0  0  0  0  0  0  0  0  0
   13.0083   98.3298   56.3180 C   0  0  0  0  0  0  0  0  0  0  0  0
   14.0553   99.0175   56.8321 N   0  0  0  0  0  0  0  0  0  0  0  0
   14.0441   98.8911   58.1500 N   0  0  0  0  0  0  0  0  0  0  0  0
   12.9992   98.1263   58.5110 C   0  0  0  0  0  0  0  0  0  0  0  0
   12.6206   97.7323   59.9158 C   0  0  0  0  0  0  0  0  0  0  0  0
   13.5031   96.7020   60.2739 O   0  0  0  0  0  0  0  0  0  0  0  0
   13.3624   95.8967   61.3782 C   0  0  0  0  0  0  0  0  0  0  0  0
   14.5050   95.5044   62.0610 C   0  0  0  0  0  0  0  0  0  0  0  0
   14.4005   94.6918   63.1797 C   0  0  0  0  0  0  0  0  0  0  0  0
   13.1512   94.2846   63.5973 C   0  0  0  0  0  0  0  0  0  0  0  0
   12.9860   93.2655   64.9951 Cl  0  0  0  0  0  0  0  0  0  0  0  0
   12.0252   94.6745   62.9200 C   0  0  0  0  0  0  0  0  0  0  0  0
   12.1408   95.4716   61.8241 C   0  0  0  0  0  0  0  0  0  0  0  0
   12.3679   97.7868   57.3658 N   0  0  0  0  0  0  0  0  0  0  0  0
   11.2176   96.9846   57.3275 N   0  0  0  0  0  0  0  0  0  0  0  0
  1  2  1  0
  2  3  1  0
  2  4  1  0
  4  5  2  0
  4  6  1  0
  6  7  1  0
  7  8  1  0
  8  9  2  0
  9 10  1  0
 10 11  2  0
 11 12  1  0
 12 13  1  0
 13 14  1  0
 14 15  2  0
 15 16  1  0
 16 17  2  0
 17 18  1  0
 17 19  1  0
 19 20  2  0
 11 21  1  0
 21 22  1  0
 21  8  1  0
 20 14  1  0
M  END
$$$$
