
     RDKit          3D

 32 36  0  0  0  0  0  0  0  0999 V2000
    7.1965   97.9144   60.8458 C   0  0  0  0  0  0  0  0  0  0  0  0
    8.6249   97.7607   60.6611 N   0  0  0  0  0  0  0  0  0  0  0  0
    9.4020   98.4719   59.8298 C   0  0  0  0  0  0  0  0  0  0  0  0
   10.7031   98.0290   59.9393 C   0  0  0  0  0  0  0  0  0  0  0  0
   11.8151   98.5744   59.1926 C   0  0  0  0  0  0  0  0  0  0  0  0
   11.7348   99.9260   58.7613 N   0  0  0  0  0  0  0  0  0  0  0  0
   12.9390  100.5164   58.3298 C   0  0  0  0  0  0  0  0  0  0  0  0
   12.7476  101.2198   57.0055 C   0  0  0  0  0  0  0  0  0  0  0  0
   12.2430  100.2232   56.0815 N   0  0  0  0  0  0  0  0  0  0  0  0
   12.9987   99.8740   54.9468 C   0  0  0  0  0  0  0  0  0  0  0  0
   12.3969   99.1851   53.9197 C   0  0  0  0  0  0  0  0  0  0  0  0
   13.1196   98.8180   52.7769 C   0  0  0  0  0  0  0  0  0  0  0  0
   14.4646   99.1562   52.6822 C   0  0  0  0  0  0  0  0  0  0  0  0
   15.0504   99.8463   53.7202 C   0  0  0  0  0  0  0  0  0  0  0  0
   16.3092  100.2859   53.8756 N   0  0  0  0  0  0  0  0  0  0  0  0
   16.4113  100.9052   55.0486 N   0  0  0  0  0  0  0  0  0  0  0  0
   15.2239  100.8754   55.6672 C   0  0  0  0  0  0  0  0  0  0  0  0
   14.3261  100.2082   54.8538 C   0  0  0  0  0  0  0  0  0  0  0  0
   10.9527   99.6663   56.4401 C   0  0  0  0  0  0  0  0  0  0  0  0
   10.6591  100.1337   57.8533 C   0  0  0  0  0  0  0  0  0  0  0  0
   10.6989   97.0282   60.8592 C   0  0  0  0  0  0  0  0  0  0  0  0
   11.8009   96.2461   61.3750 C   0  0  0  0  0  0  0  0  0  0  0  0
   11.5525   95.0879   62.1271 C   0  0  0  0  0  0  0  0  0  0  0  0
   12.5621   94.2958   62.6236 C   0  0  0  0  0  0  0  0  0  0  0  0
   13.8875   94.6156   62.3968 C   0  0  0  0  0  0  0  0  0  0  0  0
   14.9981   93.7693   62.9292 C   0  0  0  0  0  0  0  0  0  0  0  0
   14.9698   93.6583   64.4343 C   0  0  0  0  0  0  0  0  0  0  0  0
   16.3544   94.2837   62.4938 C   0  0  0  0  0  0  0  0  0  0  0  0
   14.8804   92.3472   62.3811 C   0  0  0  0  0  0  0  0  0  0  0  0
   14.1547   95.7472   61.6614 C   0  0  0  0  0  0  0  0  0  0  0  0
   13.1174   96.5462   61.1607 C   0  0  0  0  0  0  0  0  0  0  0  0
    9.4010   96.8836   61.2893 N   0  0  0  0  0  0  0  0  0  0  0  0
  1  2  1  0
  2  3  1  0
  3  4  2  0
  4  5  1  0
  5  6  1  0
  6  7  1  0
  7  8  1  0
  8  9  1  0
  9 10  1  0
 10 11  2  0
 11 12  1  0
 12 13  2  0
 13 14  1  0
 14 15  1  0
 15 16  1  0
 16 17  2  0
 17 18  1  0
  9 19  1  0
 19 20  1  0
  4 21  1  0
 21 22  1  0
 22 23  2  0
 23 24  1  0
 24 25  2  0
 25 26  1  0
 26 27  1  0
 26 28  1  0
 26 29  1  0
 25 30  1  0
 30 31  2  0
 21 32  2  0
 32  2  1  0
 20  6  1  0
 31 22  1  0
 18 10  1  0
 18 14  2  0
M  END
$$$$
