
     RDKit          3D

 30 33  0  0  0  0  0  0  0  0999 V2000
   28.9881   81.5372   38.9964 C   0  0  0  0  0  0  0  0  0  0  0  0
   29.5008   82.4928   39.9322 O   0  0  0  0  0  0  0  0  0  0  0  0
   30.0128   82.0351   41.1351 C   0  0  0  0  0  0  0  0  0  0  0  0
   31.3882   81.9537   41.3690 C   0  0  0  0  0  0  0  0  0  0  0  0
   31.8159   81.4867   42.5955 C   0  0  0  0  0  0  0  0  0  0  0  0
   30.9648   81.0967   43.6011 C   0  0  0  0  0  0  0  0  0  0  0  0
   31.4244   80.6155   44.8656 N   0  0  0  0  0  0  0  0  0  0  0  0
   32.5556   81.1823   45.5064 C   0  0  0  0  0  0  0  0  0  0  0  0
   33.4123   81.8351   44.8245 O   0  0  0  0  0  0  0  0  0  0  0  0
   32.7821   81.0538   46.9023 N   0  0  0  0  0  0  0  0  0  0  0  0
   33.8792   80.2281   47.3831 C   0  0  0  0  0  0  0  0  0  0  0  0
   34.3603   80.7395   48.7419 C   0  0  0  0  0  0  0  0  0  0  0  0
   34.1159   82.2572   48.6864 C   0  0  2  0  0  0  0  0  0  0  0  0
   34.9881   82.8409   49.6338 N   0  0  0  0  0  0  0  0  0  0  0  0
   35.2709   82.0982   50.8132 C   0  0  0  0  0  0  0  0  0  0  0  0
   34.3053   82.3827   51.9607 C   0  0  0  0  0  0  0  0  0  0  0  0
   35.6959   82.8528   52.0889 C   0  0  0  0  0  0  0  0  0  0  0  0
   32.6509   82.4593   48.9249 C   0  0  2  0  0  0  0  0  0  0  0  0
   32.3576   81.8820   50.1779 O   0  0  0  0  0  0  0  0  0  0  0  0
   31.3146   82.1494   51.0005 C   0  0  0  0  0  0  0  0  0  0  0  0
   30.0572   82.3229   50.4371 C   0  0  0  0  0  0  0  0  0  0  0  0
   28.9332   82.5975   51.1780 C   0  0  0  0  0  0  0  0  0  0  0  0
   29.0404   82.7090   52.5422 C   0  0  0  0  0  0  0  0  0  0  0  0
   27.9375   82.9838   53.3214 F   0  0  0  0  0  0  0  0  0  0  0  0
   30.2807   82.5396   53.1157 C   0  0  0  0  0  0  0  0  0  0  0  0
   31.4055   82.2643   52.3691 C   0  0  0  0  0  0  0  0  0  0  0  0
   31.8983   81.7519   47.8181 C   0  0  0  0  0  0  0  0  0  0  0  0
   29.5928   81.1852   43.3484 C   0  0  0  0  0  0  0  0  0  0  0  0
   29.1316   81.6481   42.1323 C   0  0  0  0  0  0  0  0  0  0  0  0
   27.8010   81.7323   41.8925 F   0  0  0  0  0  0  0  0  0  0  0  0
  1  2  1  0
  2  3  1  0
  3  4  2  0
  4  5  1  0
  5  6  2  0
  6  7  1  0
  7  8  1  0
  8  9  2  0
  8 10  1  0
 10 11  1  0
 11 12  1  0
 12 13  1  0
 13 14  1  1
 14 15  1  0
 15 16  1  0
 16 17  1  0
 13 18  1  0
 18 19  1  1
 19 20  1  0
 20 21  2  0
 21 22  1  0
 22 23  2  0
 23 24  1  0
 23 25  1  0
 25 26  2  0
 18 27  1  0
  6 28  1  0
 28 29  2  0
 29 30  1  0
 29  3  1  0
 27 10  1  0
 17 15  1  0
 26 20  1  0
M  END
$$$$
