
     RDKit          3D

 30 32  0  0  0  0  0  0  0  0999 V2000
   38.7877   83.2939   54.6085 C   0  0  0  0  0  0  0  0  0  0  0  0
   39.1824   82.7981   53.2018 C   0  0  2  0  0  0  0  0  0  0  0  0
   40.0219   83.8180   52.5889 C   0  0  0  0  0  0  0  0  0  0  0  0
   39.4623   84.9893   52.4181 O   0  0  0  0  0  0  0  0  0  0  0  0
   41.3449   83.7643   52.1467 N   0  0  0  0  0  0  0  0  0  0  0  0
   42.1006   82.4853   52.2928 C   0  0  0  0  0  0  0  0  0  0  0  0
   42.0241   84.8528   51.5371 C   0  0  2  0  0  0  0  0  0  0  0  0
   43.1200   84.3132   50.5800 C   0  0  0  0  0  0  0  0  0  0  0  0
   42.6866   85.7568   52.5064 C   0  0  0  0  0  0  0  0  0  0  0  0
   43.1329   85.2242   53.6935 C   0  0  0  0  0  0  0  0  0  0  0  0
   43.7495   86.0055   54.6491 C   0  0  0  0  0  0  0  0  0  0  0  0
   43.8947   87.3432   54.3537 C   0  0  0  0  0  0  0  0  0  0  0  0
   43.4527   87.8889   53.1700 C   0  0  0  0  0  0  0  0  0  0  0  0
   42.8403   87.0824   52.2349 C   0  0  0  0  0  0  0  0  0  0  0  0
   38.0407   82.3189   52.5747 N   0  0  0  0  0  0  0  0  0  0  0  0
   37.2441   83.2035   51.8079 C   0  0  0  0  0  0  0  0  0  0  0  0
   36.3995   82.5374   50.7589 C   0  0  0  0  0  0  0  0  0  0  0  0
   35.7232   81.2914   51.2271 C   0  0  2  0  0  0  0  0  0  0  0  0
   35.7322   80.4258   50.0965 O   0  0  0  0  0  0  0  0  0  0  0  0
   34.2896   81.5713   51.4873 C   0  0  0  0  0  0  0  0  0  0  0  0
   33.8459   81.9726   52.7421 C   0  0  0  0  0  0  0  0  0  0  0  0
   32.5354   82.2285   53.0552 C   0  0  0  0  0  0  0  0  0  0  0  0
   31.5717   82.0891   52.0902 C   0  0  0  0  0  0  0  0  0  0  0  0
   29.8654   82.4078   52.4442 Cl  0  0  0  0  0  0  0  0  0  0  0  0
   31.9698   81.6933   50.8345 C   0  0  0  0  0  0  0  0  0  0  0  0
   33.3001   81.4377   50.5326 C   0  0  0  0  0  0  0  0  0  0  0  0
   36.3281   80.5450   52.3409 C   0  0  0  0  0  0  0  0  0  0  0  0
   37.1758   79.3739   51.7914 C   0  0  0  0  0  0  0  0  0  0  0  0
   35.3248   79.9006   53.2749 C   0  0  0  0  0  0  0  0  0  0  0  0
   37.2638   81.3390   53.2146 C   0  0  0  0  0  0  0  0  0  0  0  0
  2  1  1  1
  2  3  1  0
  3  4  2  0
  3  5  1  0
  5  6  1  0
  5  7  1  0
  7  8  1  6
  7  9  1  0
  9 10  2  0
 10 11  1  0
 11 12  2  0
 12 13  1  0
 13 14  2  0
  2 15  1  0
 15 16  1  0
 16 17  1  0
 17 18  1  0
 18 19  1  6
 18 20  1  0
 20 21  2  0
 21 22  1  0
 22 23  2  0
 23 24  1  0
 23 25  1  0
 25 26  2  0
 18 27  1  0
 27 28  1  0
 27 29  1  0
 27 30  1  0
 14  9  1  0
 30 15  1  0
 26 20  1  0
M  END
$$$$
