
     RDKit          3D

 24 27  0  0  0  0  0  0  0  0999 V2000
  -10.9902   55.8446   29.9315 C   0  0  0  0  0  0  0  0  0  0  0  0
  -10.8954   57.1610   29.4261 O   0  0  0  0  0  0  0  0  0  0  0  0
   -9.8989   58.0091   29.8859 C   0  0  0  0  0  0  0  0  0  0  0  0
   -9.4786   59.0602   29.0843 C   0  0  0  0  0  0  0  0  0  0  0  0
   -8.4761   59.9044   29.5600 C   0  0  0  0  0  0  0  0  0  0  0  0
   -7.8953   59.7278   30.7912 C   0  0  0  0  0  0  0  0  0  0  0  0
   -6.8204   60.6685   31.2499 C   0  0  0  0  0  0  0  0  0  0  0  0
   -7.1894   61.9186   31.6384 C   0  0  0  0  0  0  0  0  0  0  0  0
   -8.4904   62.5492   31.6962 C   0  0  0  0  0  0  0  0  0  0  0  0
   -9.6012   61.8191   32.0055 C   0  0  0  0  0  0  0  0  0  0  0  0
  -10.8704   62.4001   32.0690 C   0  0  0  0  0  0  0  0  0  0  0  0
  -10.9622   63.7545   31.8048 C   0  0  0  0  0  0  0  0  0  0  0  0
   -9.8659   64.5192   31.4905 C   0  0  0  0  0  0  0  0  0  0  0  0
   -8.6191   63.8820   31.4417 C   0  0  0  0  0  0  0  0  0  0  0  0
   -5.6384   62.6760   32.0928 S   0  0  0  0  0  0  0  0  0  0  0  0
   -4.6620   61.2123   31.7052 C   0  0  0  0  0  0  0  0  0  0  0  0
   -3.3878   60.7675   31.7080 N   0  0  0  0  0  0  0  0  0  0  0  0
   -3.4367   59.5161   31.2673 C   0  0  0  0  0  0  0  0  0  0  0  0
   -4.7530   59.2181   31.0014 C   0  0  0  0  0  0  0  0  0  0  0  0
   -5.5407   60.3326   31.2913 N   0  0  0  0  0  0  0  0  0  0  0  0
   -8.3271   58.6798   31.5691 C   0  0  0  0  0  0  0  0  0  0  0  0
   -7.7619   58.4636   32.8311 O   0  0  0  0  0  0  0  0  0  0  0  0
   -8.0253   57.3485   33.6195 C   0  0  0  0  0  0  0  0  0  0  0  0
   -9.3292   57.8149   31.1238 C   0  0  0  0  0  0  0  0  0  0  0  0
  1  2  1  0
  2  3  1  0
  3  4  2  0
  4  5  1  0
  5  6  2  0
  6  7  1  0
  7  8  2  0
  8  9  1  0
  9 10  2  0
 10 11  1  0
 11 12  2  0
 12 13  1  0
 13 14  2  0
  8 15  1  0
 15 16  1  0
 16 17  2  0
 17 18  1  0
 18 19  2  0
 19 20  1  0
  6 21  1  0
 21 22  1  0
 22 23  1  0
 21 24  2  0
 24  3  1  0
 20  7  1  0
 14  9  1  0
 20 16  1  0
M  END
$$$$
