
     RDKit          3D

 31 35  0  0  0  0  0  0  0  0999 V2000
   14.3566   49.2012   16.8764 C   0  0  0  0  0  0  0  0  0  0  0  0
   14.7503   50.6546   17.0405 C   0  0  0  0  0  0  0  0  0  0  0  0
   13.6791   51.4686   16.3179 C   0  0  0  0  0  0  0  0  0  0  0  0
   16.0779   50.9047   16.4704 C   0  0  0  0  0  0  0  0  0  0  0  0
   17.1841   50.1678   16.8205 C   0  0  0  0  0  0  0  0  0  0  0  0
   18.4297   50.3991   16.2864 C   0  0  0  0  0  0  0  0  0  0  0  0
   18.5901   51.3979   15.3702 C   0  0  0  0  0  0  0  0  0  0  0  0
   19.7999   51.6395   14.8307 N   0  0  0  0  0  0  0  0  0  0  0  0
   20.0188   52.6050   13.9223 C   0  0  0  0  0  0  0  0  0  0  0  0
   18.9539   53.3830   13.5261 C   0  0  0  0  0  0  0  0  0  0  0  0
   17.6640   53.1751   14.0579 C   0  0  0  0  0  0  0  0  0  0  0  0
   16.5903   53.9902   13.6528 N   0  0  0  0  0  0  0  0  0  0  0  0
   15.3027   54.0827   14.3207 C   0  0  0  0  0  0  0  0  0  0  0  0
   15.0544   55.5033   14.7979 C   0  0  0  0  0  0  0  0  0  0  0  0
   15.3760   56.4780   13.7967 N   0  0  0  0  0  0  0  0  0  0  0  0
   15.1015   57.8191   14.1708 C   0  0  0  0  0  0  0  0  0  0  0  0
   13.9624   58.3648   13.3749 C   0  0  0  0  0  0  0  0  0  0  0  0
   13.5640   59.6337   13.3977 N   0  0  0  0  0  0  0  0  0  0  0  0
   12.5166   60.0391   12.6409 C   0  0  0  0  0  0  0  0  0  0  0  0
   11.8446   59.1177   11.8262 C   0  0  0  0  0  0  0  0  0  0  0  0
   10.8368   59.7910   11.1770 C   0  0  0  0  0  0  0  0  0  0  0  0
   10.8830   61.0718   11.5722 N   0  0  0  0  0  0  0  0  0  0  0  0
   11.8915   61.2045   12.4464 N   0  0  0  0  0  0  0  0  0  0  0  0
   12.2246   62.4673   13.0745 C   0  0  0  0  0  0  0  0  0  0  0  0
   12.2657   57.8173   11.8135 C   0  0  0  0  0  0  0  0  0  0  0  0
   11.6644   56.9899   11.0838 O   0  0  0  0  0  0  0  0  0  0  0  0
   13.3108   57.4728   12.5854 N   0  0  0  0  0  0  0  0  0  0  0  0
   16.5633   56.2720   13.0547 C   0  0  0  0  0  0  0  0  0  0  0  0
   16.6868   54.8787   12.4747 C   0  0  0  0  0  0  0  0  0  0  0  0
   17.4950   52.1729   14.9843 C   0  0  0  0  0  0  0  0  0  0  0  0
   16.2478   51.9118   15.5443 C   0  0  0  0  0  0  0  0  0  0  0  0
  1  2  1  0
  2  3  1  0
  2  4  1  0
  4  5  2  0
  5  6  1  0
  6  7  2  0
  7  8  1  0
  8  9  2  0
  9 10  1  0
 10 11  2  0
 11 12  1  0
 12 13  1  0
 13 14  1  0
 14 15  1  0
 15 16  1  0
 16 17  1  0
 17 18  2  0
 18 19  1  0
 19 20  2  0
 20 21  1  0
 21 22  2  0
 22 23  1  0
 23 24  1  0
 20 25  1  0
 25 26  2  0
 25 27  1  0
 15 28  1  0
 28 29  1  0
 11 30  1  0
 30 31  2  0
 31  4  1  0
 30  7  1  0
 29 12  1  0
 27 17  1  0
 23 19  1  0
M  END
$$$$
