
     RDKit          3D

 26 28  0  0  0  0  0  0  0  0999 V2000
   36.8392   81.3418   54.2882 C   0  0  0  0  0  0  0  0  0  0  0  0
   37.1788   81.7422   52.8629 C   0  0  0  0  0  0  0  0  0  0  0  0
   37.9501   83.0309   52.7971 C   0  0  0  0  0  0  0  0  0  0  0  0
   36.0191   81.6563   51.9726 C   0  0  0  0  0  0  0  0  0  0  0  0
   34.7472   82.0197   52.3191 N   0  0  0  0  0  0  0  0  0  0  0  0
   33.9146   81.8448   51.3381 N   0  0  0  0  0  0  0  0  0  0  0  0
   32.5194   82.1278   51.3846 C   0  0  0  0  0  0  0  0  0  0  0  0
   31.8551   82.5524   50.2484 C   0  0  0  0  0  0  0  0  0  0  0  0
   30.5051   82.8258   50.2883 C   0  0  0  0  0  0  0  0  0  0  0  0
   29.7541   82.6951   51.4376 C   0  0  0  0  0  0  0  0  0  0  0  0
   28.0389   83.0412   51.4944 Cl  0  0  0  0  0  0  0  0  0  0  0  0
   30.4249   82.2702   52.5700 C   0  0  0  0  0  0  0  0  0  0  0  0
   31.7746   81.9953   52.5364 C   0  0  0  0  0  0  0  0  0  0  0  0
   32.6034   81.4581   53.9869 Cl  0  0  0  0  0  0  0  0  0  0  0  0
   34.5965   81.3627   50.3114 C   0  0  0  0  0  0  0  0  0  0  0  0
   33.9498   80.9513   48.7418 Cl  0  0  0  0  0  0  0  0  0  0  0  0
   35.9421   81.2268   50.6725 C   0  0  0  0  0  0  0  0  0  0  0  0
   36.9927   80.7176   49.7951 C   0  0  0  0  0  0  0  0  0  0  0  0
   37.3490   81.6895   48.7884 N   0  0  0  0  0  0  0  0  0  0  0  0
   38.3737   81.2618   47.8952 C   0  0  2  0  0  0  0  0  0  0  0  0
   38.6126   82.2186   46.7509 C   0  0  0  0  0  0  0  0  0  0  0  0
   39.5805   81.5161   45.8022 C   0  0  0  0  0  0  0  0  0  0  0  0
   38.7644   80.5213   44.9842 C   0  0  0  0  0  0  0  0  0  0  0  0
   37.5933   80.0874   45.8187 C   0  0  0  0  0  0  0  0  0  0  0  0
   37.9247   79.9447   47.2813 C   0  0  1  0  0  0  0  0  0  0  0  0
   38.9458   79.0490   47.4138 F   0  0  0  0  0  0  0  0  0  0  0  0
  1  2  1  0
  2  3  1  0
  2  4  1  0
  4  5  2  0
  5  6  1  0
  6  7  1  0
  7  8  2  0
  8  9  1  0
  9 10  2  0
 10 11  1  0
 10 12  1  0
 12 13  2  0
 13 14  1  0
  6 15  1  0
 15 16  1  0
 15 17  2  0
 17 18  1  0
 18 19  1  0
 20 19  1  1
 20 21  1  0
 21 22  1  0
 22 23  1  0
 23 24  1  0
 24 25  1  0
 25 26  1  6
 17  4  1  0
 25 20  1  0
 13  7  1  0
M  END
$$$$
