
     RDKit          3D

 16 17  0  0  0  0  0  0  0  0999 V2000
    8.5857   94.5772   63.2763 C   0  0  0  0  0  2  0  0  0  0  0  0
    9.0629   94.1959   61.8929 C   0  0  0  0  0  0  0  0  0  0  0  0
   10.0983   95.0715   61.5334 O   0  0  0  0  0  0  0  0  0  0  0  0
   11.4120   94.8343   61.8290 C   0  0  0  0  0  0  0  0  0  0  0  0
   11.7089   93.8166   62.6666 N   0  0  0  0  0  0  0  0  0  0  0  0
   13.0040   93.6009   62.9434 C   0  0  0  0  0  0  0  0  0  0  0  0
   13.2993   92.5504   63.8071 C   0  0  0  0  0  0  0  0  0  0  0  0
   14.6203   92.3251   64.0937 C   0  0  0  0  0  0  0  0  0  0  0  0
   15.6138   93.1042   63.5510 C   0  0  0  0  0  0  0  0  0  0  0  0
   15.3194   94.1458   62.6945 C   0  0  0  0  0  0  0  0  0  0  0  0
   13.9941   94.3666   62.4111 C   0  0  0  0  0  0  0  0  0  0  0  0
   13.6569   95.3891   61.5664 N   0  0  0  0  0  0  0  0  0  0  0  0
   12.3735   95.6340   61.2672 C   0  0  0  0  0  0  0  0  0  0  0  0
   12.0007   96.6544   60.4213 O   0  0  0  0  0  0  0  0  0  0  0  0
   12.7464   97.8563   60.4365 C   0  0  0  0  0  0  0  0  0  0  0  0
   13.0350   98.3649   59.0520 C   0  0  0  0  0  0  0  0  0  0  0  0
  1  2  1  0
  2  3  1  0
  3  4  1  0
  4  5  2  0
  5  6  1  0
  6  7  2  0
  7  8  1  0
  8  9  2  0
  9 10  1  0
 10 11  2  0
 11 12  1  0
 12 13  2  0
 13 14  1  0
 14 15  1  0
 15 16  1  0
 13  4  1  0
 11  6  1  0
M  RAD  1   1   3
M  END
$$$$
