
     RDKit          3D

 27 30  0  0  0  0  0  0  0  0999 V2000
   14.0945  100.7714   52.9385 C   0  0  0  0  0  0  0  0  0  0  0  0
   13.6253  100.4128   54.3312 C   0  0  0  0  0  0  0  0  0  0  0  0
   13.9262  100.2917   55.4381 N   0  0  0  0  0  0  0  0  0  0  0  0
   13.2390   99.9430   56.4715 N   0  0  0  0  0  0  0  0  0  0  0  0
   13.4522   99.7603   57.8083 C   0  0  0  0  0  0  0  0  0  0  0  0
   12.2865   99.3725   58.4009 C   0  0  0  0  0  0  0  0  0  0  0  0
   12.0700   99.0651   59.8512 C   0  0  0  0  0  0  0  0  0  0  0  0
   12.2420   97.6368   60.1245 C   0  0  0  0  0  0  0  0  0  0  0  0
   12.1762   96.8234   59.1411 O   0  0  0  0  0  0  0  0  0  0  0  0
   12.4734   97.1927   61.4478 N   0  0  0  0  0  0  0  0  0  0  0  0
   12.9662   98.1546   62.4106 C   0  0  0  0  0  0  0  0  0  0  0  0
   12.3399   97.8602   63.7282 C   0  0  0  0  0  0  0  0  0  0  0  0
   12.4769   96.4724   64.2136 C   0  0  0  0  0  0  0  0  0  0  0  0
   12.7744   95.4492   63.1499 C   0  0  0  0  0  0  0  0  0  0  0  0
   14.2488   95.2921   63.0306 C   0  0  0  0  0  0  0  0  0  0  0  0
   14.7321   93.8952   62.8626 C   0  0  0  0  0  0  0  0  0  0  0  0
   13.7230   92.9801   62.2660 C   0  0  0  0  0  0  0  0  0  0  0  0
   13.9992   92.1751   61.3477 O   0  0  0  0  0  0  0  0  0  0  0  0
   12.4055   93.0491   62.7823 N   0  0  0  0  0  0  0  0  0  0  0  0
   11.4206   92.0241   62.5321 C   0  0  0  0  0  0  0  0  0  0  0  0
   11.4094   90.9742   63.6274 C   0  0  0  0  0  0  0  0  0  0  0  0
   10.6993   91.4419   64.7511 O   0  0  0  0  0  0  0  0  0  0  0  0
   12.0595   94.1839   63.5778 C   0  0  0  0  0  0  0  0  0  0  0  0
   12.2230   95.8374   61.8010 C   0  0  0  0  0  0  0  0  0  0  0  0
   11.3411   99.3126   57.4308 N   0  0  0  0  0  0  0  0  0  0  0  0
   11.9596   99.6690   56.2582 C   0  0  0  0  0  0  0  0  0  0  0  0
   11.7713   99.9304   54.5078 S   0  0  0  0  0  0  0  0  0  0  0  0
  1  2  1  0
  2  3  2  0
  3  4  1  0
  4  5  1  0
  5  6  2  0
  6  7  1  0
  7  8  1  0
  8  9  2  0
  8 10  1  0
 10 11  1  0
 11 12  1  0
 12 13  1  0
 13 14  1  0
 14 15  1  0
 15 16  1  0
 16 17  1  0
 17 18  2  0
 17 19  1  0
 19 20  1  0
 20 21  1  0
 21 22  1  0
 19 23  1  0
 14 24  1  0
  6 25  1  0
 25 26  2  0
 26 27  1  0
 27  2  1  0
 26  4  1  0
 24 10  1  0
 23 14  1  0
M  END
$$$$
