
     RDKit          3D

 28 31  0  0  0  0  0  0  0  0999 V2000
   13.3499   47.0953   19.2228 C   0  0  0  0  0  0  0  0  0  0  0  0
   13.1006   48.4420   18.8700 O   0  0  0  0  0  0  0  0  0  0  0  0
   14.0900   49.1218   18.1751 C   0  0  0  0  0  0  0  0  0  0  0  0
   13.8021   49.9250   17.0986 C   0  0  0  0  0  0  0  0  0  0  0  0
   14.7719   50.6229   16.3768 C   0  0  0  0  0  0  0  0  0  0  0  0
   14.4325   51.4139   15.3131 O   0  0  0  0  0  0  0  0  0  0  0  0
   13.1588   51.2505   14.7215 C   0  0  0  0  0  0  0  0  0  0  0  0
   16.0617   50.4920   16.7682 C   0  0  0  0  0  0  0  0  0  0  0  0
   17.0326   51.1523   16.1115 C   0  0  0  0  0  0  0  0  0  0  0  0
   16.9008   51.9691   14.9518 N   0  0  0  0  0  0  0  0  0  0  0  0
   15.9157   53.0239   15.0440 C   0  0  0  0  0  0  0  0  0  0  0  0
   16.1800   54.1687   14.0965 C   0  0  0  0  0  0  0  0  0  0  0  0
   15.0443   55.1615   14.1938 C   0  0  0  0  0  0  0  0  0  0  0  0
   16.1326   53.4257   12.4433 S   0  0  0  0  0  0  0  0  0  0  0  0
   17.2231   51.9886   12.4905 C   0  0  0  0  0  0  0  0  0  0  0  0
   18.3528   52.2459   11.5154 C   0  0  0  0  0  0  0  0  0  0  0  0
   17.7263   51.6474   13.8486 C   0  0  0  0  0  0  0  0  0  0  0  0
   18.3210   51.0075   16.5458 N   0  0  0  0  0  0  0  0  0  0  0  0
   18.6513   50.2367   17.5926 C   0  0  0  0  0  0  0  0  0  0  0  0
   20.0509   50.1329   17.9965 C   0  0  0  0  0  0  0  0  0  0  0  0
   21.0348   50.8986   17.4141 C   0  0  0  0  0  0  0  0  0  0  0  0
   22.3436   50.7778   17.8163 C   0  0  0  0  0  0  0  0  0  0  0  0
   22.7339   49.8997   18.8062 C   0  0  0  0  0  0  0  0  0  0  0  0
   21.7415   49.1313   19.3897 C   0  0  0  0  0  0  0  0  0  0  0  0
   20.4230   49.2513   18.9861 C   0  0  0  0  0  0  0  0  0  0  0  0
   17.6660   49.5920   18.2232 N   0  0  0  0  0  0  0  0  0  0  0  0
   16.3734   49.6895   17.8496 C   0  0  0  0  0  0  0  0  0  0  0  0
   15.4193   49.0002   18.5637 C   0  0  0  0  0  0  0  0  0  0  0  0
  1  2  1  0
  2  3  1  0
  3  4  2  0
  4  5  1  0
  5  6  1  0
  6  7  1  0
  5  8  2  0
  8  9  1  0
  9 10  1  0
 10 11  1  0
 11 12  1  0
 12 13  1  0
 12 14  1  0
 14 15  1  0
 15 16  1  0
 15 17  1  0
  9 18  2  0
 18 19  1  0
 19 20  1  0
 20 21  2  0
 21 22  1  0
 22 23  2  0
 23 24  1  0
 24 25  2  0
 19 26  2  0
 26 27  1  0
 27 28  2  0
 28  3  1  0
 27  8  1  0
 17 10  1  0
 25 20  1  0
M  END
$$$$
