
     RDKit          3D

 18 20  0  0  0  0  0  0  0  0999 V2000
   34.0080   81.8943   53.2872 O   0  0  0  0  0  0  0  0  0  0  0  0
   33.8675   81.9444   52.0357 C   0  0  0  0  0  0  0  0  0  0  0  0
   34.9631   81.7663   51.1758 C   0  0  0  0  0  0  0  0  0  0  0  0
   36.2519   81.5247   51.7658 C   0  0  0  0  0  0  0  0  0  0  0  0
   36.4491   80.6082   52.6871 C   0  0  0  0  0  0  0  0  0  0  0  0
   38.1514   80.4773   53.2885 S   0  0  0  0  0  0  0  0  0  0  0  0
   38.6034   82.1429   53.8799 C   0  0  0  0  0  0  0  0  0  0  0  0
   38.4073   83.1786   52.8036 C   0  0  0  0  0  0  0  0  0  0  0  0
   37.7151   82.4695   51.2840 S   0  0  0  0  0  0  0  0  0  0  0  0
   34.7942   81.8235   49.8179 C   0  0  0  0  0  0  0  0  0  0  0  0
   33.5753   82.0500   49.3583 O   0  0  0  0  0  0  0  0  0  0  0  0
   32.5425   82.2189   50.1193 C   0  0  0  0  0  0  0  0  0  0  0  0
   31.2793   82.4553   49.5653 C   0  0  0  0  0  0  0  0  0  0  0  0
   30.1627   82.6385   50.3535 C   0  0  0  0  0  0  0  0  0  0  0  0
   30.2814   82.5898   51.7315 C   0  0  0  0  0  0  0  0  0  0  0  0
   28.8383   82.8277   52.7000 Cl  0  0  0  0  0  0  0  0  0  0  0  0
   31.5118   82.3589   52.3074 C   0  0  0  0  0  0  0  0  0  0  0  0
   32.6325   82.1754   51.4932 C   0  0  0  0  0  0  0  0  0  0  0  0
  1  2  2  0
  2  3  1  0
  3  4  1  0
  4  5  2  0
  5  6  1  0
  6  7  1  0
  7  8  1  0
  8  9  1  0
  3 10  2  0
 10 11  1  0
 11 12  1  0
 12 13  2  0
 13 14  1  0
 14 15  2  0
 15 16  1  0
 15 17  1  0
 17 18  2  0
 18  2  1  0
  9  4  1  0
 18 12  1  0
M  END
$$$$
