
     RDKit          3D

 23 25  0  0  0  0  0  0  0  0999 V2000
   37.2572   83.5233   52.3230 C   0  0  0  0  0  0  0  0  0  0  0  0
   36.7734   82.5397   51.4899 N   0  0  0  0  0  0  0  0  0  0  0  0
   35.4341   82.2182   51.3213 C   0  0  0  0  0  0  0  0  0  0  0  0
   34.7400   82.2704   50.0347 C   0  0  0  0  0  0  0  0  0  0  0  0
   33.2994   82.0059   50.0681 C   0  0  0  0  0  0  0  0  0  0  0  0
   32.5267   82.7222   51.0186 C   0  0  0  0  0  0  0  0  0  0  0  0
   31.1836   82.5499   51.1262 C   0  0  0  0  0  0  0  0  0  0  0  0
   30.5565   81.6481   50.2810 C   0  0  0  0  0  0  0  0  0  0  0  0
   31.3235   80.9744   49.3776 C   0  0  0  0  0  0  0  0  0  0  0  0
   32.6268   81.1692   49.3038 N   0  0  0  0  0  0  0  0  0  0  0  0
   37.6169   81.3980   51.2240 C   0  0  0  0  0  0  0  0  0  0  0  0
   38.6951   81.1244   52.1870 C   0  0  1  0  0  0  0  0  0  0  0  0
   38.2334   80.1037   53.1666 C   0  0  0  0  0  0  0  0  0  0  0  0
   37.5419   78.9803   52.7572 C   0  0  0  0  0  0  0  0  0  0  0  0
   37.0977   78.0107   53.6308 C   0  0  0  0  0  0  0  0  0  0  0  0
   37.3537   78.1643   54.9848 C   0  0  0  0  0  0  0  0  0  0  0  0
   38.0425   79.2816   55.4002 C   0  0  0  0  0  0  0  0  0  0  0  0
   38.4778   80.2377   54.5174 C   0  0  0  0  0  0  0  0  0  0  0  0
   40.0036   80.8735   51.7393 N   0  0  0  0  0  0  0  0  0  0  0  0
   40.1098   79.8386   50.7310 C   0  0  0  0  0  0  0  0  0  0  0  0
   39.6328   80.4166   49.4350 C   0  0  0  0  0  0  0  0  0  0  0  0
   39.9919   81.8725   49.5705 C   0  0  0  0  0  0  0  0  0  0  0  0
   40.5185   82.0124   51.0010 C   0  0  0  0  0  0  0  0  0  0  0  0
  1  2  1  0
  2  3  1  0
  3  4  1  0
  4  5  1  0
  5  6  2  0
  6  7  1  0
  7  8  2  0
  8  9  1  0
  9 10  2  0
  2 11  1  0
 12 11  1  6
 12 13  1  0
 13 14  2  0
 14 15  1  0
 15 16  2  0
 16 17  1  0
 17 18  2  0
 12 19  1  0
 19 20  1  0
 20 21  1  0
 21 22  1  0
 22 23  1  0
 10  5  1  0
 18 13  1  0
 23 19  1  0
M  END
$$$$
