
     RDKit          3D

 20 22  0  0  0  0  0  0  0  0999 V2000
   10.8212   94.3448   63.4221 C   0  0  0  0  0  0  0  0  0  0  0  0
   12.2941   94.1837   63.3931 C   0  0  0  0  0  0  0  0  0  0  0  0
   12.7441   92.8475   62.7995 C   0  0  0  0  0  0  0  0  0  0  0  0
   14.1279   92.9157   62.6158 O   0  0  0  0  0  0  0  0  0  0  0  0
   14.7759   93.7199   63.5437 C   0  0  0  0  0  0  0  0  0  0  0  0
   14.4849   95.2156   63.3036 C   0  0  0  0  0  0  0  0  0  0  0  0
   13.0925   95.1749   62.7860 N   0  0  0  0  0  0  0  0  0  0  0  0
   12.7427   96.0608   61.7909 C   0  0  0  0  0  0  0  0  0  0  0  0
   13.6780   96.8143   61.3011 O   0  0  0  0  0  0  0  0  0  0  0  0
   11.4172   96.2840   61.1775 C   0  0  0  0  0  0  0  0  0  0  0  0
   11.5378   97.0539   59.9349 N   0  0  0  0  0  0  0  0  0  0  0  0
   11.9919   96.6089   58.7606 C   0  0  0  0  0  0  0  0  0  0  0  0
   12.4106   95.4570   58.4512 O   0  0  0  0  0  0  0  0  0  0  0  0
   11.9515   97.5948   57.8782 O   0  0  0  0  0  0  0  0  0  0  0  0
   11.4773   98.6927   58.4448 C   0  0  0  0  0  0  0  0  0  0  0  0
   11.2307   99.9729   58.0007 C   0  0  0  0  0  0  0  0  0  0  0  0
   10.7215  100.9342   58.8353 C   0  0  0  0  0  0  0  0  0  0  0  0
   10.4515  100.6139   60.1424 C   0  0  0  0  0  0  0  0  0  0  0  0
   10.6979   99.3351   60.5868 C   0  0  0  0  0  0  0  0  0  0  0  0
   11.2132   98.3371   59.7683 C   0  0  0  0  0  0  0  0  0  0  0  0
  1  2  1  0
  2  3  1  0
  3  4  1  0
  4  5  1  0
  5  6  1  0
  6  7  1  0
  7  8  1  0
  8  9  2  0
  8 10  1  0
 10 11  1  0
 11 12  1  0
 12 13  2  0
 12 14  1  0
 14 15  1  0
 15 16  2  0
 16 17  1  0
 17 18  2  0
 18 19  1  0
 19 20  2  0
  7  2  1  0
 20 11  1  0
 20 15  1  0
M  END
$$$$
