
     RDKit          3D

 29 32  0  0  0  0  0  0  0  0999 V2000
   29.3995   82.6991   50.9916 C   0  0  0  0  0  0  0  0  0  0  0  0
   30.4987   82.4130   51.7934 O   0  0  0  0  0  0  0  0  0  0  0  0
   31.7793   82.2206   51.2829 C   0  0  0  0  0  0  0  0  0  0  0  0
   32.8798   82.8695   51.8385 C   0  0  0  0  0  0  0  0  0  0  0  0
   34.1425   82.6669   51.3203 C   0  0  0  0  0  0  0  0  0  0  0  0
   34.3595   81.8186   50.2383 C   0  0  0  0  0  0  0  0  0  0  0  0
   35.6839   81.6000   49.6880 C   0  0  0  0  0  0  0  0  0  0  0  0
   35.9829   81.4726   48.3711 N   0  0  0  0  0  0  0  0  0  0  0  0
   37.3037   81.2731   48.2094 C   0  0  0  0  0  0  0  0  0  0  0  0
   38.1043   81.0866   47.0901 C   0  0  0  0  0  0  0  0  0  0  0  0
   39.4431   80.9079   47.2998 C   0  0  0  0  0  0  0  0  0  0  0  0
   40.0162   80.9063   48.5636 C   0  0  0  0  0  0  0  0  0  0  0  0
   39.2031   81.0942   49.6777 C   0  0  0  0  0  0  0  0  0  0  0  0
   37.8457   81.2770   49.4822 C   0  0  0  0  0  0  0  0  0  0  0  0
   36.8441   81.4809   50.4170 C   0  0  0  0  0  0  0  0  0  0  0  0
   36.9793   81.5612   51.8648 C   0  0  0  0  0  0  0  0  0  0  0  0
   36.1381   80.8993   52.7350 C   0  0  0  0  0  0  0  0  0  0  0  0
   36.2890   80.9788   54.1001 C   0  0  0  0  0  0  0  0  0  0  0  0
   37.3072   81.7379   54.6735 C   0  0  0  0  0  0  0  0  0  0  0  0
   38.1554   82.4064   53.8398 C   0  0  0  0  0  0  0  0  0  0  0  0
   39.1680   83.1714   54.3380 O   0  0  0  0  0  0  0  0  0  0  0  0
   40.0422   83.9363   53.5955 C   0  0  0  0  0  0  0  0  0  0  0  0
   41.0936   84.6229   54.4011 C   0  0  0  0  0  0  0  0  0  0  0  0
   40.9790   86.0563   54.3733 N   0  0  0  0  0  0  0  0  0  0  0  0
   41.9948   86.7555   53.6741 C   0  0  0  0  0  0  0  0  0  0  0  0
   40.6084   86.6467   55.6086 C   0  0  0  0  0  0  0  0  0  0  0  0
   37.9731   82.3030   52.4443 C   0  0  0  0  0  0  0  0  0  0  0  0
   33.2661   81.1917   49.7081 C   0  0  0  0  0  0  0  0  0  0  0  0
   31.9810   81.3828   50.2170 C   0  0  0  0  0  0  0  0  0  0  0  0
  1  2  1  0
  2  3  1  0
  3  4  2  0
  4  5  1  0
  5  6  2  0
  6  7  1  0
  7  8  1  0
  8  9  1  0
  9 10  2  0
 10 11  1  0
 11 12  2  0
 12 13  1  0
 13 14  2  0
 14 15  1  0
 15 16  1  0
 16 17  2  0
 17 18  1  0
 18 19  2  0
 19 20  1  0
 20 21  1  0
 21 22  1  0
 22 23  1  0
 23 24  1  0
 24 25  1  0
 24 26  1  0
 20 27  2  0
  6 28  1  0
 28 29  2  0
 29  3  1  0
 15  7  2  0
 27 16  1  0
 14  9  1  0
M  END
$$$$
