
     RDKit          3D

 39 42  0  0  0  0  0  0  0  0999 V2000
   20.0426   47.4757   16.8267 C   0  0  0  0  0  0  0  0  0  0  0  0
   20.2150   48.9597   17.0414 C   0  0  2  0  0  0  0  0  0  0  0  0
   20.2362   49.6933   15.6920 C   0  0  0  0  0  0  0  0  0  0  0  0
   20.1308   51.1180   16.0513 N   0  0  0  0  0  0  0  0  0  0  0  0
   19.0765   51.9067   15.5555 C   0  0  0  0  0  0  0  0  0  0  0  0
   19.3542   52.9351   14.6406 C   0  0  0  0  0  0  0  0  0  0  0  0
   18.3299   53.7192   14.1616 C   0  0  0  0  0  0  0  0  0  0  0  0
   18.5856   54.7205   13.2715 F   0  0  0  0  0  0  0  0  0  0  0  0
   17.0163   53.5225   14.5597 C   0  0  0  0  0  0  0  0  0  0  0  0
   15.9493   54.3570   14.0427 C   0  0  0  0  0  0  0  0  0  0  0  0
   14.6512   54.3221   14.5170 C   0  0  0  0  0  0  0  0  0  0  0  0
   13.7321   55.1353   13.9508 N   0  0  0  0  0  0  0  0  0  0  0  0
   14.0229   55.9766   12.9476 C   0  0  0  0  0  0  0  0  0  0  0  0
   13.0026   56.8103   12.4008 N   0  0  0  0  0  0  0  0  0  0  0  0
   11.6405   56.6715   12.8818 C   0  0  0  0  0  0  0  0  0  0  0  0
   13.2877   57.7753   11.3858 C   0  0  0  0  0  0  0  0  0  0  0  0
   15.2728   56.0206   12.4809 N   0  0  0  0  0  0  0  0  0  0  0  0
   16.2173   55.2319   13.0120 C   0  0  0  0  0  0  0  0  0  0  0  0
   16.7556   52.5115   15.4562 C   0  0  0  0  0  0  0  0  0  0  0  0
   17.7851   51.7022   15.9548 C   0  0  0  0  0  0  0  0  0  0  0  0
   17.4436   50.6837   16.8685 N   0  0  0  0  0  0  0  0  0  0  0  0
   16.0929   50.6101   17.3136 C   0  0  0  0  0  0  0  0  0  0  0  0
   15.2550   51.4783   16.9002 O   0  0  0  0  0  0  0  0  0  0  0  0
   15.6306   49.5849   18.2250 C   0  0  0  0  0  0  0  0  0  0  0  0
   16.5663   48.7256   18.8150 C   0  0  0  0  0  0  0  0  0  0  0  0
   16.1711   47.7640   19.6616 N   0  0  0  0  0  0  0  0  0  0  0  0
   14.8767   47.5820   19.9796 C   0  0  0  0  0  0  0  0  0  0  0  0
   14.5532   46.6425   20.7979 O   0  0  0  0  0  0  0  0  0  0  0  0
   13.9178   48.3923   19.4326 C   0  0  0  0  0  0  0  0  0  0  0  0
   14.3166   49.3899   18.5556 C   0  0  0  0  0  0  0  0  0  0  0  0
   13.2641   50.2450   17.9898 C   0  0  0  0  0  0  0  0  0  0  0  0
   12.0540   49.7895   18.5060 F   0  0  0  0  0  0  0  0  0  0  0  0
   13.4247   51.5337   18.5154 F   0  0  0  0  0  0  0  0  0  0  0  0
   13.2165   50.3018   16.6359 F   0  0  0  0  0  0  0  0  0  0  0  0
   21.1756   51.5863   16.9420 C   0  0  0  0  0  0  0  0  0  0  0  0
   21.2814   50.6843   18.1824 C   0  0  2  0  0  0  0  0  0  0  0  0
   22.4961   51.1424   18.9540 C   0  0  0  0  0  0  0  0  0  0  0  0
   21.4112   49.3183   17.7335 N   0  0  0  0  0  0  0  0  0  0  0  0
   21.7720   48.4144   18.7992 C   0  0  0  0  0  0  0  0  0  0  0  0
  2  1  1  6
  2  3  1  0
  3  4  1  0
  4  5  1  0
  5  6  2  0
  6  7  1  0
  7  8  1  0
  7  9  2  0
  9 10  1  0
 10 11  2  0
 11 12  1  0
 12 13  2  0
 13 14  1  0
 14 15  1  0
 14 16  1  0
 13 17  1  0
 17 18  2  0
  9 19  1  0
 19 20  2  0
 20 21  1  0
 21 22  1  0
 22 23  2  0
 22 24  1  0
 24 25  2  0
 25 26  1  0
 26 27  1  0
 27 28  2  0
 27 29  1  0
 29 30  2  0
 30 31  1  0
 31 32  1  0
 31 33  1  0
 31 34  1  0
  4 35  1  0
 35 36  1  0
 36 37  1  6
 36 38  1  0
 38 39  1  0
 38  2  1  0
 20  5  1  0
 30 24  1  0
 18 10  1  0
M  END
$$$$
