
     RDKit          3D

 25 27  0  0  0  0  0  0  0  0999 V2000
   46.7000   81.7650   54.3019 C   0  0  0  0  0  0  0  0  0  0  0  0
   45.5928   82.4531   54.7347 C   0  0  0  0  0  0  0  0  0  0  0  0
   44.3475   82.3295   54.1551 C   0  0  0  0  0  0  0  0  0  0  0  0
   44.2018   81.4749   53.0890 C   0  0  0  0  0  0  0  0  0  0  0  0
   42.8386   81.3731   52.4892 C   0  0  0  0  0  0  0  0  0  0  0  0
   41.8680   82.3028   53.1295 C   0  0  0  0  0  0  0  0  0  0  0  0
   40.9388   81.5763   53.9429 N   0  0  0  0  0  0  0  0  0  0  0  0
   40.1380   80.7095   53.1179 C   0  0  0  0  0  0  0  0  0  0  0  0
   38.7509   81.2836   52.9712 C   0  0  0  0  0  0  0  0  0  0  0  0
   38.3326   82.2921   53.8006 C   0  0  0  0  0  0  0  0  0  0  0  0
   37.0496   82.8297   53.6586 C   0  0  0  0  0  0  0  0  0  0  0  0
   36.1952   82.3539   52.6880 C   0  0  0  0  0  0  0  0  0  0  0  0
   34.9202   82.8888   52.5457 O   0  0  0  0  0  0  0  0  0  0  0  0
   33.8441   82.1986   51.9725 C   0  0  0  0  0  0  0  0  0  0  0  0
   32.6632   83.1705   51.8390 C   0  0  0  0  0  0  0  0  0  0  0  0
   31.4457   82.2926   51.8718 C   0  0  0  0  0  0  0  0  0  0  0  0
   31.2765   81.3250   50.8864 C   0  0  0  0  0  0  0  0  0  0  0  0
   30.1494   80.5284   50.9328 C   0  0  0  0  0  0  0  0  0  0  0  0
   29.2359   80.7199   51.9500 C   0  0  0  0  0  0  0  0  0  0  0  0
   29.4185   81.6844   52.9204 C   0  0  0  0  0  0  0  0  0  0  0  0
   30.5536   82.5006   52.8898 C   0  0  0  0  0  0  0  0  0  0  0  0
   36.6330   81.3293   51.8533 C   0  0  0  0  0  0  0  0  0  0  0  0
   37.9125   80.8102   52.0126 C   0  0  0  0  0  0  0  0  0  0  0  0
   45.2788   80.7816   52.6398 C   0  0  0  0  0  0  0  0  0  0  0  0
   46.5137   80.9057   53.2164 C   0  0  0  0  0  0  0  0  0  0  0  0
  1  2  2  0
  2  3  1  0
  3  4  2  0
  4  5  1  0
  5  6  1  0
  6  7  1  0
  7  8  1  0
  8  9  1  0
  9 10  2  0
 10 11  1  0
 11 12  2  0
 12 13  1  0
 13 14  1  0
 14 15  1  0
 15 16  1  0
 16 17  2  0
 17 18  1  0
 18 19  2  0
 19 20  1  0
 20 21  2  0
 12 22  1  0
 22 23  2  0
  4 24  1  0
 24 25  2  0
 25  1  1  0
 23  9  1  0
 21 16  1  0
M  END
$$$$
