
     RDKit          3D

 24 26  0  0  0  0  0  0  0  0999 V2000
   30.0046   81.6592   39.5378 C   0  0  0  0  0  0  0  0  0  0  0  0
   30.6189   81.9355   40.8661 C   0  0  0  0  0  0  0  0  0  0  0  0
   29.9496   81.8740   42.0286 N   0  0  0  0  0  0  0  0  0  0  0  0
   30.7804   82.1768   43.0531 C   0  0  0  0  0  0  0  0  0  0  0  0
   30.6283   82.2644   44.4239 C   0  0  0  0  0  0  0  0  0  0  0  0
   31.6853   82.6055   45.2469 C   0  0  0  0  0  0  0  0  0  0  0  0
   31.5355   82.6978   46.6632 N   0  0  0  0  0  0  0  0  0  0  0  0
   32.7030   82.6812   47.5080 C   0  0  0  0  0  0  0  0  0  0  0  0
   32.7149   81.4035   48.3294 C   0  0  0  0  0  0  0  0  0  0  0  0
   34.0526   81.0498   48.5813 O   0  0  0  0  0  0  0  0  0  0  0  0
   32.0321   81.6921   49.6079 C   0  0  0  0  0  0  0  0  0  0  0  0
   32.7353   81.7578   50.7839 C   0  0  0  0  0  0  0  0  0  0  0  0
   32.1308   82.0247   51.9941 C   0  0  0  0  0  0  0  0  0  0  0  0
   30.7713   82.2276   51.9880 C   0  0  0  0  0  0  0  0  0  0  0  0
   30.0292   82.5227   53.2505 C   0  0  0  0  0  0  0  0  0  0  0  0
   29.3734   81.3603   53.6162 F   0  0  0  0  0  0  0  0  0  0  0  0
   29.0969   83.4994   52.9656 F   0  0  0  0  0  0  0  0  0  0  0  0
   30.8837   82.8804   54.2650 F   0  0  0  0  0  0  0  0  0  0  0  0
   30.0501   82.1664   50.8251 C   0  0  0  0  0  0  0  0  0  0  0  0
   30.6727   81.8950   49.6021 C   0  0  0  0  0  0  0  0  0  0  0  0
   32.8910   82.8515   44.6258 C   0  0  0  0  0  0  0  0  0  0  0  0
   33.0634   82.7697   43.2624 C   0  0  0  0  0  0  0  0  0  0  0  0
   32.0001   82.4282   42.4526 C   0  0  0  0  0  0  0  0  0  0  0  0
   31.8401   82.2694   41.1601 O   0  0  0  0  0  0  0  0  0  0  0  0
  1  2  1  0
  2  3  2  0
  3  4  1  0
  4  5  2  0
  5  6  1  0
  6  7  1  0
  7  8  1  0
  8  9  1  0
  9 10  1  0
  9 11  1  0
 11 12  2  0
 12 13  1  0
 13 14  2  0
 14 15  1  0
 15 16  1  0
 15 17  1  0
 15 18  1  0
 14 19  1  0
 19 20  2  0
  6 21  2  0
 21 22  1  0
 22 23  2  0
 23 24  1  0
 24  2  1  0
 23  4  1  0
 20 11  1  0
M  END
$$$$
