
     RDKit          3D

 36 40  0  0  0  0  0  0  0  0999 V2000
   22.1082   58.2892   15.4932 O   0  0  0  0  0  0  0  0  0  0  0  0
   21.4325   57.1353   15.1361 C   0  0  0  0  0  0  0  0  0  0  0  0
   21.0026   57.2788   13.6977 C   0  0  0  0  0  0  0  0  0  0  0  0
   20.1152   58.4659   13.4969 C   0  0  0  0  0  0  0  0  0  0  0  0
   18.6711   57.9498   13.5157 C   0  0  0  0  0  0  0  0  0  0  0  0
   18.3027   57.5103   12.1229 C   0  0  0  0  0  0  0  0  0  0  0  0
   17.0525   58.1797   11.7464 N   0  0  0  0  0  0  0  0  0  0  0  0
   15.8694   57.5721   12.2710 C   0  0  0  0  0  0  0  0  0  0  0  0
   14.6517   58.1098   12.0954 N   0  0  0  0  0  0  0  0  0  0  0  0
   13.5287   57.5621   12.5717 C   0  0  0  0  0  0  0  0  0  0  0  0
   12.2795   58.1543   12.3669 N   0  0  0  0  0  0  0  0  0  0  0  0
   12.0904   59.4883   12.0652 N   0  0  0  0  0  0  0  0  0  0  0  0
   10.9054   60.1247   11.8505 C   0  0  0  0  0  0  0  0  0  0  0  0
   11.1328   61.4070   11.5866 N   0  0  0  0  0  0  0  0  0  0  0  0
   12.4242   61.6308   11.6213 N   0  0  0  0  0  0  0  0  0  0  0  0
   13.0221   60.4343   11.9198 C   0  0  0  0  0  0  0  0  0  0  0  0
   13.6418   56.3891   13.2745 N   0  0  0  0  0  0  0  0  0  0  0  0
   14.8206   55.8177   13.4754 C   0  0  0  0  0  0  0  0  0  0  0  0
   14.9985   54.6021   14.1906 N   0  0  0  0  0  0  0  0  0  0  0  0
   16.1684   54.5182   15.0446 C   0  0  0  0  0  0  0  0  0  0  0  0
   16.7895   53.1450   14.8464 C   0  0  0  0  0  0  0  0  0  0  0  0
   15.7292   52.2006   15.1251 N   0  0  0  0  0  0  0  0  0  0  0  0
   15.8879   51.2629   16.1708 C   0  0  0  0  0  0  0  0  0  0  0  0
   17.1608   50.9411   16.6478 C   0  0  0  0  0  0  0  0  0  0  0  0
   17.3223   50.0283   17.6522 C   0  0  0  0  0  0  0  0  0  0  0  0
   16.2685   49.4145   18.2103 N   0  0  0  0  0  0  0  0  0  0  0  0
   15.0109   49.6918   17.7834 C   0  0  0  0  0  0  0  0  0  0  0  0
   13.9773   49.0300   18.3996 C   0  0  0  0  0  0  0  0  0  0  0  0
   12.6890   49.2866   17.9965 C   0  0  0  0  0  0  0  0  0  0  0  0
   11.3283   48.4855   18.7316 Cl  0  0  0  0  0  0  0  0  0  0  0  0
   12.4818   50.2044   16.9826 C   0  0  0  0  0  0  0  0  0  0  0  0
   13.5279   50.8615   16.3728 C   0  0  0  0  0  0  0  0  0  0  0  0
   14.8235   50.6140   16.7664 C   0  0  0  0  0  0  0  0  0  0  0  0
   14.4929   52.1823   14.3758 C   0  0  0  0  0  0  0  0  0  0  0  0
   14.0244   53.5674   14.0214 C   0  0  0  0  0  0  0  0  0  0  0  0
   15.9050   56.4217   12.9698 N   0  0  0  0  0  0  0  0  0  0  0  0
  1  2  1  0
  2  3  1  0
  3  4  1  0
  4  5  1  0
  5  6  1  0
  6  7  1  0
  7  8  1  0
  8  9  2  0
  9 10  1  0
 10 11  1  0
 11 12  1  0
 12 13  1  0
 13 14  2  0
 14 15  1  0
 15 16  2  0
 10 17  2  0
 17 18  1  0
 18 19  1  0
 19 20  1  0
 20 21  1  0
 21 22  1  0
 22 23  1  0
 23 24  2  0
 24 25  1  0
 25 26  2  0
 26 27  1  0
 27 28  2  0
 28 29  1  0
 29 30  1  0
 29 31  2  0
 31 32  1  0
 32 33  2  0
 22 34  1  0
 34 35  1  0
 18 36  2  0
 36  8  1  0
 16 12  1  0
 35 19  1  0
 33 23  1  0
 33 27  1  0
M  END
$$$$
