
     RDKit          3D

 23 26  0  0  0  0  0  0  0  0999 V2000
   38.5587   82.5883   49.4909 C   0  0  0  0  0  0  0  0  0  0  0  0
   37.0833   82.3605   49.5390 C   0  0  0  0  0  0  0  0  0  0  0  0
   36.4263   81.5434   48.6394 C   0  0  0  0  0  0  0  0  0  0  0  0
   35.0523   81.3726   48.7395 C   0  0  0  0  0  0  0  0  0  0  0  0
   34.3481   82.0018   49.7132 C   0  0  0  0  0  0  0  0  0  0  0  0
   32.8807   81.8916   49.8940 C   0  0  0  0  0  0  0  0  0  0  0  0
   31.9278   81.8881   49.0259 C   0  0  0  0  0  0  0  0  0  0  0  0
   32.2288   82.0124   47.5739 C   0  0  0  0  0  0  0  0  0  0  0  0
   33.1298   82.8971   47.0814 C   0  0  0  0  0  0  0  0  0  0  0  0
   33.3578   82.9343   45.7020 C   0  0  0  0  0  0  0  0  0  0  0  0
   32.7081   82.1151   44.8326 C   0  0  0  0  0  0  0  0  0  0  0  0
   32.9026   82.1211   43.4917 F   0  0  0  0  0  0  0  0  0  0  0  0
   31.7877   81.2148   45.3556 C   0  0  0  0  0  0  0  0  0  0  0  0
   31.5624   81.1766   46.7115 C   0  0  0  0  0  0  0  0  0  0  0  0
   30.5545   81.7683   49.4601 C   0  0  0  0  0  0  0  0  0  0  0  0
   30.4176   82.0521   50.9008 C   0  0  0  0  0  0  0  0  0  0  0  0
   30.1269   83.5189   51.1704 C   0  0  0  0  0  0  0  0  0  0  0  0
   29.3697   83.5691   52.4614 C   0  0  0  0  0  0  0  0  0  0  0  0
   29.1763   82.1511   52.8822 C   0  0  0  0  0  0  0  0  0  0  0  0
   29.3838   81.2771   51.6497 C   0  0  0  0  0  0  0  0  0  0  0  0
   32.1004   81.7243   51.4981 S   0  0  0  0  0  0  0  0  0  0  0  0
   35.0295   82.8096   50.5947 C   0  0  0  0  0  0  0  0  0  0  0  0
   36.3954   83.0119   50.5377 C   0  0  0  0  0  0  0  0  0  0  0  0
  1  2  1  0
  2  3  2  0
  3  4  1  0
  4  5  2  0
  5  6  1  0
  6  7  2  0
  7  8  1  0
  8  9  2  0
  9 10  1  0
 10 11  2  0
 11 12  1  0
 11 13  1  0
 13 14  2  0
  7 15  1  0
 15 16  1  0
 16 17  1  0
 17 18  1  0
 18 19  1  0
 19 20  1  0
 16 21  1  0
  5 22  1  0
 22 23  2  0
 23  2  1  0
 21  6  1  0
 14  8  1  0
 20 16  1  0
M  END
$$$$
