
     RDKit          3D

 29 33  0  0  0  0  0  0  0  0999 V2000
   10.0057   60.7693   12.5179 C   0  0  0  0  0  0  0  0  0  0  0  0
   11.0220   59.6993   12.2096 C   0  0  0  0  0  0  0  0  0  0  0  0
   11.7041   59.7208   11.1562 O   0  0  0  0  0  0  0  0  0  0  0  0
   11.2398   58.6233   13.1135 N   0  0  0  0  0  0  0  0  0  0  0  0
   12.2539   57.6393   12.9497 C   0  0  0  0  0  0  0  0  0  0  0  0
   12.5446   56.5928   13.7448 N   0  0  0  0  0  0  0  0  0  0  0  0
   13.5780   55.8859   13.2489 C   0  0  0  0  0  0  0  0  0  0  0  0
   14.2684   54.7683   13.6261 C   0  0  0  0  0  0  0  0  0  0  0  0
   15.3191   54.2504   12.8972 C   0  0  0  0  0  0  0  0  0  0  0  0
   16.0610   53.0351   13.3148 C   0  0  0  0  0  0  0  0  0  0  0  0
   16.6728   52.4179   12.2209 O   0  0  0  0  0  0  0  0  0  0  0  0
   15.2660   52.0939   14.1150 C   0  0  0  0  0  0  0  0  0  0  0  0
   14.1230   51.3378   13.8064 C   0  0  0  0  0  0  0  0  0  0  0  0
   13.5275   50.5109   14.7263 C   0  0  0  0  0  0  0  0  0  0  0  0
   14.0955   50.4454   15.9819 C   0  0  0  0  0  0  0  0  0  0  0  0
   15.2109   51.1657   16.3258 C   0  0  0  0  0  0  0  0  0  0  0  0
   15.9223   51.0665   17.9372 Cl  0  0  0  0  0  0  0  0  0  0  0  0
   15.7950   51.9949   15.3771 C   0  0  0  0  0  0  0  0  0  0  0  0
   16.9859   52.8640   15.4610 C   0  0  0  0  0  0  0  0  0  0  0  0
   17.6922   52.9949   16.4898 O   0  0  0  0  0  0  0  0  0  0  0  0
   17.1268   53.4699   14.1938 N   0  0  0  0  0  0  0  0  0  0  0  0
   18.2014   54.3968   13.8204 C   0  0  0  0  0  0  0  0  0  0  0  0
   18.0240   55.7172   14.4814 C   0  0  0  0  0  0  0  0  0  0  0  0
   17.1842   56.8094   13.8947 C   0  0  0  0  0  0  0  0  0  0  0  0
   18.6779   56.9597   14.0056 C   0  0  0  0  0  0  0  0  0  0  0  0
   15.6754   54.8975   11.7443 C   0  0  0  0  0  0  0  0  0  0  0  0
   14.9861   56.0290   11.3504 C   0  0  0  0  0  0  0  0  0  0  0  0
   13.9347   56.5382   12.0896 C   0  0  0  0  0  0  0  0  0  0  0  0
   13.1210   57.5913   11.9329 N   0  0  0  0  0  0  0  0  0  0  0  0
  1  2  1  0
  2  3  2  0
  2  4  1  0
  4  5  1  0
  5  6  2  0
  6  7  1  0
  7  8  2  0
  8  9  1  0
  9 10  1  0
 10 11  1  0
 10 12  1  0
 12 13  2  0
 13 14  1  0
 14 15  2  0
 15 16  1  0
 16 17  1  0
 16 18  2  0
 18 19  1  0
 19 20  2  0
 19 21  1  0
 21 22  1  0
 22 23  1  0
 23 24  1  0
 24 25  1  0
  9 26  2  0
 26 27  1  0
 27 28  2  0
 28 29  1  0
 29  5  1  0
 28  7  1  0
 21 10  1  0
 25 23  1  0
 18 12  1  0
M  END
$$$$
