
     RDKit          3D

 41 45  0  0  0  0  0  0  0  0999 V2000
   20.6388   55.0173   24.8999 C   0  0  0  0  0  0  0  0  0  0  0  0
   21.6043   53.8884   24.6808 C   0  0  0  0  0  0  0  0  0  0  0  0
   20.9743   52.6115   25.1928 C   0  0  0  0  0  0  0  0  0  0  0  0
   21.8422   51.4597   24.7886 C   0  0  0  0  0  0  0  0  0  0  0  0
   21.1404   50.3419   24.2654 N   0  0  0  0  0  0  0  0  0  0  0  0
   19.7982   50.6260   23.8332 C   0  0  0  0  0  0  0  0  0  0  0  0
   18.9528   49.3719   23.7370 C   0  0  0  0  0  0  0  0  0  0  0  0
   19.7847   48.1901   23.2807 C   0  0  0  0  0  0  0  0  0  0  0  0
   19.0585   47.2757   22.4605 N   0  0  0  0  0  0  0  0  0  0  0  0
   17.9819   46.4824   23.0074 C   0  0  0  0  0  0  0  0  0  0  0  0
   18.1224   45.9784   24.1373 O   0  0  0  0  0  0  0  0  0  0  0  0
   16.7780   46.3433   22.1407 C   0  0  0  0  0  0  0  0  0  0  0  0
   17.2050   46.2996   20.6981 C   0  0  0  0  0  0  0  0  0  0  0  0
   16.4020   47.2504   19.8700 C   0  0  1  0  0  0  0  0  0  0  0  0
   15.6573   48.1411   20.8439 C   0  0  0  0  0  0  0  0  0  0  0  0
   17.1576   47.9568   18.8296 C   0  0  1  0  0  0  0  0  0  0  0  0
   17.9943   46.9406   17.9977 C   0  0  0  0  0  0  0  0  0  0  0  0
   18.2891   47.6202   16.6867 C   0  0  0  0  0  0  0  0  0  0  0  0
   17.7874   49.0147   16.9124 C   0  0  1  0  0  0  0  0  0  0  0  0
   17.5583   49.7987   15.6892 C   0  0  2  0  0  0  0  0  0  0  0  0
   18.8966   50.4765   15.3351 C   0  0  1  0  0  0  0  0  0  0  0  0
   19.7952   49.4471   15.0017 O   0  0  0  0  0  0  0  0  0  0  0  0
   18.7947   51.3951   14.1671 C   0  0  2  0  0  0  0  0  0  0  0  0
   20.0276   52.3053   14.2382 C   0  0  0  0  0  0  0  0  0  0  0  0
   17.5920   52.2689   14.1355 C   0  0  1  0  0  0  0  0  0  0  0  0
   17.3732   52.8361   12.7639 C   0  0  0  0  0  0  0  0  0  0  0  0
   16.2315   53.8011   12.6964 C   0  0  2  0  0  0  0  0  0  0  0  0
   16.6087   55.0828   13.1578 O   0  0  0  0  0  0  0  0  0  0  0  0
   14.9874   53.3066   13.3738 C   0  0  0  0  0  0  0  0  0  0  0  0
   15.2273   52.5734   14.6483 C   0  0  0  0  0  0  0  0  0  0  0  0
   16.3174   51.5337   14.5309 C   0  0  1  0  0  0  0  0  0  0  0  0
   15.9647   50.4996   13.5060 C   0  0  0  0  0  0  0  0  0  0  0  0
   16.5886   50.9191   15.8589 C   0  0  1  0  0  0  0  0  0  0  0  0
   15.3834   50.5603   16.6683 C   0  0  0  0  0  0  0  0  0  0  0  0
   15.9262   50.0305   18.0073 C   0  0  0  0  0  0  0  0  0  0  0  0
   16.5138   48.6967   17.7366 C   0  0  2  0  0  0  0  0  0  0  0  0
   15.6704   47.8576   16.8005 C   0  0  0  0  0  0  0  0  0  0  0  0
   20.9799   48.7027   22.4868 C   0  0  0  0  0  0  0  0  0  0  0  0
   21.8611   49.4639   23.4189 C   0  0  0  0  0  0  0  0  0  0  0  0
   22.7781   48.5110   24.1495 C   0  0  0  0  0  0  0  0  0  0  0  0
   23.8610   49.2528   24.6293 O   0  0  0  0  0  0  0  0  0  0  0  0
  1  2  1  0
  2  3  1  0
  3  4  1  0
  4  5  1  0
  5  6  1  0
  6  7  1  0
  7  8  1  0
  8  9  1  0
  9 10  1  0
 10 11  2  0
 10 12  1  0
 12 13  1  0
 13 14  1  0
 14 15  1  1
 14 16  1  0
 16 17  1  6
 17 18  1  0
 19 18  1  6
 19 20  1  0
 20 21  1  1
 21 22  1  6
 21 23  1  0
 23 24  1  1
 23 25  1  0
 25 26  1  6
 26 27  1  0
 27 28  1  1
 27 29  1  0
 29 30  1  0
 30 31  1  0
 31 32  1  6
 31 33  1  0
 33 34  1  6
 34 35  1  0
 35 36  1  0
 36 37  1  6
  8 38  1  0
 38 39  1  0
 39 40  1  0
 40 41  1  0
 39  5  1  0
 36 16  1  0
 36 19  1  0
 33 20  1  0
 31 25  1  0
M  END
$$$$
