
     RDKit          3D

 29 32  0  0  0  0  0  0  0  0999 V2000
   12.2916   48.8244   18.8356 C   0  0  0  0  0  0  0  0  0  0  0  0
   13.7166   48.6017   19.0646 N   0  0  0  0  0  4  0  0  0  0  0  0
   14.5089   49.7882   19.0157 C   0  0  0  0  0  0  0  0  0  0  0  0
   15.1307   49.9110   17.6212 C   0  0  0  0  0  0  0  0  0  0  0  0
   15.9314   51.0847   17.5320 N   0  0  0  0  0  0  0  0  0  0  0  0
   16.6479   51.2453   16.2717 C   0  0  0  0  0  0  0  0  0  0  0  0
   16.1973   52.3792   15.4761 C   0  0  0  0  0  0  0  0  0  0  0  0
   15.2539   53.0567   16.0549 O   0  0  0  0  0  0  0  0  0  0  0  0
   16.6064   52.8203   14.2146 N   0  0  0  0  0  0  0  0  0  0  0  0
   15.9921   53.9822   13.6437 C   0  0  0  0  0  0  0  0  0  0  0  0
   14.6333   53.9718   13.8156 C   0  0  0  0  0  0  0  0  0  0  0  0
   13.8509   55.0201   13.3837 C   0  0  0  0  0  0  0  0  0  0  0  0
   14.4332   56.1215   12.7531 C   0  0  0  0  0  0  0  0  0  0  0  0
   15.8093   56.1096   12.5847 C   0  0  0  0  0  0  0  0  0  0  0  0
   16.5837   55.0589   13.0199 C   0  0  0  0  0  0  0  0  0  0  0  0
   17.9852   55.1681   12.7117 N   0  0  0  0  0  0  0  0  0  0  0  0
   18.9637   54.1043   12.6120 C   0  0  0  0  0  0  0  0  0  0  0  0
   20.1138   54.3923   12.2460 O   0  0  0  0  0  0  0  0  0  0  0  0
   18.7779   52.6659   12.8963 C   0  0  0  0  0  0  0  0  0  0  0  0
   19.7631   51.8467   12.3919 C   0  0  0  0  0  0  0  0  0  0  0  0
   19.7009   50.4696   12.5657 C   0  0  0  0  0  0  0  0  0  0  0  0
   18.6313   49.9493   13.2524 C   0  0  0  0  0  0  0  0  0  0  0  0
   17.6333   50.7750   13.7626 C   0  0  0  0  0  0  0  0  0  0  0  0
   17.7070   52.1290   13.5876 C   0  0  0  0  0  0  0  0  0  0  0  0
   14.1213   47.6044   18.0829 C   0  0  0  0  0  0  0  0  0  0  0  0
   15.0536   46.5707   18.6524 C   0  0  0  0  0  0  0  0  0  0  0  0
   15.9039   47.0996   19.5932 O   0  0  0  0  0  0  0  0  0  0  0  0
   15.2285   47.6131   20.6832 C   0  0  0  0  0  0  0  0  0  0  0  0
   13.7930   47.9543   20.3805 C   0  0  0  0  0  0  0  0  0  0  0  0
  1  2  1  0
  2  3  1  0
  3  4  1  0
  4  5  1  0
  5  6  1  0
  6  7  1  0
  7  8  2  0
  7  9  1  0
  9 10  1  0
 10 11  2  0
 11 12  1  0
 12 13  2  0
 13 14  1  0
 14 15  2  0
 15 16  1  0
 16 17  1  0
 17 18  2  0
 17 19  1  0
 19 20  2  0
 20 21  1  0
 21 22  2  0
 22 23  1  0
 23 24  2  0
  2 25  1  0
 25 26  1  0
 26 27  1  0
 27 28  1  0
 28 29  1  0
 29  2  1  0
 24  9  1  0
 15 10  1  0
 24 19  1  0
M  CHG  1   2   1
M  END
$$$$
