
     RDKit          3D

 20 20  0  0  0  0  0  0  0  0999 V2000
   16.2707   59.0154   13.4891 C   0  0  0  0  0  0  0  0  0  0  0  0
   15.5009   57.8530   14.0642 C   0  0  0  0  0  0  0  0  0  0  0  0
   15.5474   56.6673   13.1474 C   0  0  0  0  0  0  0  0  0  0  0  0
   14.8992   56.8836   11.8126 C   0  0  0  0  0  0  0  0  0  0  0  0
   14.9236   55.5056   13.7910 N   0  0  0  0  0  0  0  0  0  0  0  0
   13.4804   55.4800   13.7950 C   0  0  0  0  0  0  0  0  0  0  0  0
   15.7346   54.4903   14.3315 C   0  0  0  0  0  0  0  0  0  0  0  0
   17.0061   54.6626   14.3320 O   0  0  0  0  0  0  0  0  0  0  0  0
   15.2830   53.2149   14.9156 C   0  0  0  0  0  0  0  0  0  0  0  0
   16.4317   52.2903   15.0892 C   0  0  0  0  0  0  0  0  0  0  0  0
   16.7794   51.7713   13.7360 C   0  0  0  0  0  0  0  0  0  0  0  0
   17.0301   51.3621   12.6856 N   0  0  0  0  0  0  0  0  0  0  0  0
   16.1450   51.1287   15.9490 C   0  0  0  0  0  0  0  0  0  0  0  0
   17.1704   50.3140   16.3435 C   0  0  0  0  0  0  0  0  0  0  0  0
   16.9427   49.2297   17.1655 C   0  0  0  0  0  0  0  0  0  0  0  0
   15.6793   48.9213   17.6207 C   0  0  0  0  0  0  0  0  0  0  0  0
   15.4570   47.8237   18.4663 O   0  0  0  0  0  0  0  0  0  0  0  0
   14.2332   47.1310   18.3075 C   0  0  0  0  0  0  0  0  0  0  0  0
   14.6425   49.7377   17.2217 C   0  0  0  0  0  0  0  0  0  0  0  0
   14.8724   50.8436   16.3871 C   0  0  0  0  0  0  0  0  0  0  0  0
  1  2  1  0
  2  3  1  0
  3  4  1  0
  3  5  1  0
  5  6  1  0
  5  7  1  0
  7  8  2  0
  7  9  1  0
  9 10  1  0
 10 11  1  0
 11 12  3  0
 10 13  1  0
 13 14  2  0
 14 15  1  0
 15 16  2  0
 16 17  1  0
 17 18  1  0
 16 19  1  0
 19 20  2  0
 20 13  1  0
M  END
$$$$
