
     RDKit          3D

 27 30  0  0  0  0  0  0  0  0999 V2000
   11.2313   63.5337   11.3194 O   0  0  0  0  0  0  0  0  0  0  0  0
   12.3296   64.0024   12.0451 C   0  0  0  0  0  0  0  0  0  0  0  0
   13.1386   62.8176   12.5222 C   0  0  2  0  0  0  0  0  0  0  0  0
   12.8114   61.6499   11.8952 O   0  0  0  0  0  0  0  0  0  0  0  0
   12.6061   60.6640   12.8206 C   0  0  1  0  0  0  0  0  0  0  0  0
   13.1048   59.3764   12.4012 N   0  0  0  0  0  0  0  0  0  0  0  0
   12.6271   58.5075   11.4956 C   0  0  0  0  0  0  0  0  0  0  0  0
   13.4279   57.4300   11.4380 N   0  0  0  0  0  0  0  0  0  0  0  0
   14.4391   57.6238   12.3320 C   0  0  0  0  0  0  0  0  0  0  0  0
   15.5345   56.8480   12.6873 C   0  0  0  0  0  0  0  0  0  0  0  0
   15.7290   55.5981   12.0588 N   0  0  0  0  0  0  0  0  0  0  0  0
   16.9422   54.8593   12.2930 C   0  0  0  0  0  0  0  0  0  0  0  0
   16.6640   53.6466   13.1026 C   0  0  0  0  0  0  0  0  0  0  0  0
   17.6899   52.8237   13.4575 C   0  0  0  0  0  0  0  0  0  0  0  0
   17.4731   51.6890   14.2080 C   0  0  0  0  0  0  0  0  0  0  0  0
   16.1673   51.4089   14.5937 C   0  0  0  0  0  0  0  0  0  0  0  0
   15.7905   49.9820   15.5542 Cl  0  0  0  0  0  0  0  0  0  0  0  0
   15.1217   52.2215   14.2485 C   0  0  0  0  0  0  0  0  0  0  0  0
   15.3886   53.3540   13.4914 C   0  0  0  0  0  0  0  0  0  0  0  0
   16.3640   57.3310   13.6221 N   0  0  0  0  0  0  0  0  0  0  0  0
   16.1773   58.5146   14.2154 C   0  0  0  0  0  0  0  0  0  0  0  0
   15.1144   59.2514   13.8606 N   0  0  0  0  0  0  0  0  0  0  0  0
   14.2332   58.8348   12.9276 C   0  0  0  0  0  0  0  0  0  0  0  0
   13.2958   61.1258   14.1106 C   0  0  2  0  0  0  0  0  0  0  0  0
   12.7536   60.5395   15.2256 O   0  0  0  0  0  0  0  0  0  0  0  0
   12.9945   62.6124   14.0151 C   0  0  2  0  0  0  0  0  0  0  0  0
   11.6692   62.8518   14.3640 O   0  0  0  0  0  0  0  0  0  0  0  0
  1  2  1  0
  3  2  1  6
  3  4  1  0
  4  5  1  0
  5  6  1  6
  6  7  1  0
  7  8  2  0
  8  9  1  0
  9 10  2  0
 10 11  1  0
 11 12  1  0
 12 13  1  0
 13 14  2  0
 14 15  1  0
 15 16  2  0
 16 17  1  0
 16 18  1  0
 18 19  2  0
 10 20  1  0
 20 21  2  0
 21 22  1  0
 22 23  2  0
  5 24  1  0
 24 25  1  1
 24 26  1  0
 26 27  1  6
 26  3  1  0
 23  6  1  0
 23  9  1  0
 19 13  1  0
M  END
$$$$
