
     RDKit          3D

 23 25  0  0  0  0  0  0  0  0999 V2000
   17.6990   52.1001   13.9124 C   0  0  0  0  0  0  0  0  0  0  0  0
   18.2585   53.2017   13.2266 O   0  0  0  0  0  0  0  0  0  0  0  0
   17.4124   54.1063   12.5751 C   0  0  0  0  0  0  0  0  0  0  0  0
   17.6321   54.4710   11.2644 C   0  0  0  0  0  0  0  0  0  0  0  0
   16.7852   55.3673   10.6351 C   0  0  0  0  0  0  0  0  0  0  0  0
   15.7096   55.9112   11.3026 C   0  0  0  0  0  0  0  0  0  0  0  0
   15.4896   55.5477   12.6107 C   0  0  0  0  0  0  0  0  0  0  0  0
   14.3559   56.0891   13.3925 C   0  0  0  0  0  0  0  0  0  0  0  0
   13.5450   57.0520   12.5952 C   0  0  0  0  0  0  0  0  0  0  0  0
   12.7542   57.1091   11.7573 N   0  0  0  0  0  0  0  0  0  0  0  0
   12.2206   58.2109   11.2693 N   0  0  0  0  0  0  0  0  0  0  0  0
   12.4585   59.2714   11.5998 C   0  0  0  0  0  0  0  0  0  0  0  0
   12.1262   60.6603   11.3470 N   0  0  0  0  0  0  0  0  0  0  0  0
   12.3393   61.6446   12.3465 C   0  0  0  0  0  0  0  0  0  0  0  0
   13.0739   61.3125   13.3381 O   0  0  0  0  0  0  0  0  0  0  0  0
   11.8015   62.9798   12.3402 C   0  0  0  0  0  0  0  0  0  0  0  0
   10.9050   63.3498   11.3629 C   0  0  0  0  0  0  0  0  0  0  0  0
   10.3837   64.6497   11.3596 C   0  0  0  0  0  0  0  0  0  0  0  0
   10.7640   65.5210   12.3096 N   0  0  0  0  0  0  0  0  0  0  0  0
   11.6158   65.1473   13.2267 N   0  0  0  0  0  0  0  0  0  0  0  0
   12.1510   63.9269   13.2896 C   0  0  0  0  0  0  0  0  0  0  0  0
   13.7546   58.9081   12.9534 S   0  0  0  0  0  0  0  0  0  0  0  0
   16.3377   54.6479   13.2467 C   0  0  0  0  0  0  0  0  0  0  0  0
  1  2  1  0
  2  3  1  0
  3  4  2  0
  4  5  1  0
  5  6  2  0
  6  7  1  0
  7  8  1  0
  8  9  1  0
  9 10  2  0
 10 11  1  0
 11 12  2  0
 12 13  1  0
 13 14  1  0
 14 15  2  0
 14 16  1  0
 16 17  2  0
 17 18  1  0
 18 19  2  0
 19 20  1  0
 20 21  2  0
 12 22  1  0
  7 23  2  0
 23  3  1  0
 22  9  1  0
 21 16  1  0
M  END
$$$$
