
     RDKit          3D

 22 25  0  0  0  0  0  0  0  0999 V2000
   29.8470   83.7848   51.0860 N   0  0  0  0  0  0  0  0  0  0  0  0
   30.3848   82.7556   50.8719 C   0  0  0  0  0  0  0  0  0  0  0  0
   31.0720   81.4794   50.5857 C   0  0  0  0  0  0  0  0  0  0  0  0
   32.4500   81.7153   50.0942 C   0  0  0  0  0  0  0  0  0  0  0  0
   32.8626   81.8064   48.7863 C   0  0  0  0  0  0  0  0  0  0  0  0
   32.1104   81.7137   47.5368 C   0  0  0  0  0  0  0  0  0  0  0  0
   30.8873   81.0625   47.4588 C   0  0  0  0  0  0  0  0  0  0  0  0
   30.1972   80.9856   46.2576 C   0  0  0  0  0  0  0  0  0  0  0  0
   30.7080   81.5552   45.1056 C   0  0  0  0  0  0  0  0  0  0  0  0
   31.9361   82.2169   45.1530 C   0  0  0  0  0  0  0  0  0  0  0  0
   32.5717   82.2642   46.3513 C   0  0  0  0  0  0  0  0  0  0  0  0
   32.2715   82.7148   43.9016 O   0  0  0  0  0  0  0  0  0  0  0  0
   31.2666   82.2627   43.0184 C   0  0  0  0  0  0  0  0  0  0  0  0
   30.2707   81.6416   43.8093 O   0  0  0  0  0  0  0  0  0  0  0  0
   34.2135   82.0071   48.8441 N   0  0  0  0  0  0  0  0  0  0  0  0
   34.6386   82.0435   50.1170 C   0  0  0  0  0  0  0  0  0  0  0  0
   35.9027   82.2239   50.6728 C   0  0  0  0  0  0  0  0  0  0  0  0
   37.3175   82.4584   49.6699 Cl  0  0  0  0  0  0  0  0  0  0  0  0
   36.0302   82.2161   52.0394 C   0  0  0  0  0  0  0  0  0  0  0  0
   34.9123   82.0313   52.8157 C   0  0  0  0  0  0  0  0  0  0  0  0
   33.7003   81.8599   52.2110 C   0  0  0  0  0  0  0  0  0  0  0  0
   33.5326   81.8612   50.8781 N   0  0  0  0  0  0  0  0  0  0  0  0
  1  2  3  0
  2  3  1  0
  3  4  1  0
  4  5  2  0
  5  6  1  0
  6  7  2  0
  7  8  1  0
  8  9  2  0
  9 10  1  0
 10 11  2  0
 10 12  1  0
 12 13  1  0
 13 14  1  0
  5 15  1  0
 15 16  2  0
 16 17  1  0
 17 18  1  0
 17 19  2  0
 19 20  1  0
 20 21  2  0
 21 22  1  0
 22  4  1  0
 11  6  1  0
 22 16  1  0
 14  9  1  0
M  END
$$$$
