
     RDKit          3D

 19 21  0  0  0  0  0  0  0  0999 V2000
   28.3568   80.5464   53.0034 C   0  0  0  0  0  0  0  0  0  0  0  0
   28.5873   81.4055   51.9022 O   0  0  0  0  0  0  0  0  0  0  0  0
   29.9129   81.8144   51.6492 C   0  0  0  0  0  0  0  0  0  0  0  0
   30.0485   82.6962   50.5946 C   0  0  0  0  0  0  0  0  0  0  0  0
   31.3527   83.1146   50.3259 C   0  0  0  0  0  0  0  0  0  0  0  0
   32.4007   82.6432   51.0990 C   0  0  0  0  0  0  0  0  0  0  0  0
   34.1391   82.9263   51.0770 S   0  0  0  0  0  0  0  0  0  0  0  0
   34.4545   81.7711   52.5506 C   0  0  0  0  0  0  0  0  0  0  0  0
   35.7951   81.6051   53.0048 N   0  0  0  0  0  0  0  0  0  0  0  0
   36.8818   82.3957   52.5001 C   0  0  0  0  0  0  0  0  0  0  0  0
   37.5320   81.6998   51.3505 C   0  0  0  0  0  0  0  0  0  0  0  0
   38.2491   80.5288   51.5477 C   0  0  0  0  0  0  0  0  0  0  0  0
   38.8638   79.8538   50.4951 C   0  0  0  0  0  0  0  0  0  0  0  0
   38.7476   80.3769   49.2245 C   0  0  0  0  0  0  0  0  0  0  0  0
   38.0429   81.5379   48.9921 C   0  0  0  0  0  0  0  0  0  0  0  0
   37.4362   82.1944   50.0666 C   0  0  0  0  0  0  0  0  0  0  0  0
   33.3759   81.4430   52.7509 N   0  0  0  0  0  0  0  0  0  0  0  0
   32.2573   81.7748   52.1356 C   0  0  0  0  0  0  0  0  0  0  0  0
   30.9503   81.3531   52.4079 C   0  0  0  0  0  0  0  0  0  0  0  0
  1  2  1  0
  2  3  1  0
  3  4  2  0
  4  5  1  0
  5  6  2  0
  6  7  1  0
  7  8  1  0
  8  9  1  0
  9 10  1  0
 10 11  1  0
 11 12  2  0
 12 13  1  0
 13 14  2  0
 14 15  1  0
 15 16  2  0
  8 17  2  0
 17 18  1  0
 18 19  2  0
 19  3  1  0
 18  6  1  0
 16 11  1  0
M  END
$$$$
