
     RDKit          3D

 33 35  0  0  0  0  0  0  0  0999 V2000
   14.1679   91.8130   63.4412 C   0  0  0  0  0  0  0  0  0  0  0  0
   14.2710   93.2993   63.6394 C   0  0  0  0  0  0  0  0  0  0  0  0
   14.3642   93.8683   65.0133 C   0  0  0  0  0  0  0  0  0  0  0  0
   14.2769   94.0726   62.5856 C   0  0  0  0  0  0  0  0  0  0  0  0
   12.9760   94.6511   62.0918 C   0  0  0  0  0  0  0  0  0  0  0  0
   13.3129   95.7471   61.0904 C   0  0  0  0  0  0  0  0  0  0  0  0
   12.0862   96.4619   60.6747 C   0  0  0  0  0  0  0  0  0  0  0  0
   10.7717   95.7561   60.8072 C   0  0  0  0  0  0  0  0  0  0  0  0
   12.1631   97.6962   60.1983 C   0  0  0  0  0  0  0  0  0  0  0  0
   10.9536   98.4068   59.6898 C   0  0  0  0  0  0  0  0  0  0  0  0
   11.2490   99.0074   58.3229 C   0  0  2  0  0  0  0  0  0  0  0  0
   10.3882  100.2299   58.1465 C   0  0  0  0  0  0  0  0  0  0  0  0
   10.9745   97.9395   57.2888 C   0  0  0  0  0  0  0  0  0  0  0  0
   11.1333   98.5521   55.9315 C   0  0  0  0  0  0  0  0  0  0  0  0
   12.4424   99.2660   55.8676 C   0  0  0  0  0  0  0  0  0  0  0  0
   12.9999   99.5782   54.6299 C   0  0  0  0  0  0  0  0  0  0  0  0
   12.2542   99.1800   53.4125 C   0  0  0  0  0  0  0  0  0  0  0  0
   14.2041  100.2353   54.5089 C   0  0  0  0  0  0  0  0  0  0  0  0
   14.7274  100.5290   53.2498 O   0  0  0  0  0  0  0  0  0  0  0  0
   15.5765   99.5114   52.6954 C   0  0  0  0  0  0  0  0  0  0  0  0
   15.3136   99.2831   51.2522 C   0  0  0  0  0  0  0  0  0  0  0  0
   15.8582  100.4272   50.4496 C   0  0  0  0  0  0  0  0  0  0  0  0
   15.5699  100.3105   49.0208 C   0  0  0  0  0  0  0  0  0  0  0  0
   16.5545  100.3176   48.0733 N   0  0  0  0  0  0  0  0  0  0  0  0
   15.9750  100.2459   46.9131 N   0  0  0  0  0  0  0  0  0  0  0  0
   14.6882  100.1943   47.0634 N   0  0  0  0  0  0  0  0  0  0  0  0
   14.4221  100.2340   48.3604 N   0  0  0  0  0  0  0  0  0  0  0  0
   14.9041  100.6090   55.6386 C   0  0  0  0  0  0  0  0  0  0  0  0
   16.1991  101.3150   55.5949 C   0  0  0  0  0  0  0  0  0  0  0  0
   14.3512  100.2994   56.8603 C   0  0  0  0  0  0  0  0  0  0  0  0
   15.0598  100.6772   58.1009 C   0  0  0  0  0  0  0  0  0  0  0  0
   13.1383   99.6375   56.9915 C   0  0  0  0  0  0  0  0  0  0  0  0
   12.6155   99.3441   58.2349 O   0  0  0  0  0  0  0  0  0  0  0  0
  1  2  1  0
  2  3  1  0
  2  4  2  3
  4  5  1  0
  5  6  1  0
  6  7  1  0
  7  8  1  0
  7  9  2  3
  9 10  1  0
 10 11  1  0
 11 12  1  6
 11 13  1  0
 13 14  1  0
 14 15  1  0
 15 16  2  0
 16 17  1  0
 16 18  1  0
 18 19  1  0
 19 20  1  0
 20 21  1  0
 21 22  1  0
 22 23  1  0
 23 24  2  0
 24 25  1  0
 25 26  2  0
 26 27  1  0
 18 28  2  0
 28 29  1  0
 28 30  1  0
 30 31  1  0
 30 32  2  0
 32 33  1  0
 33 11  1  0
 32 15  1  0
 27 23  1  0
M  END
$$$$
