
     RDKit          3D

 20 21  0  0  0  0  0  0  0  0999 V2000
   40.1826   81.7342   51.5444 C   0  0  0  0  0  0  0  0  0  0  0  0
   38.8509   82.1214   51.6726 O   0  0  0  0  0  0  0  0  0  0  0  0
   37.9997   81.4512   52.5358 C   0  0  0  0  0  0  0  0  0  0  0  0
   38.5191   80.3971   53.3053 C   0  0  0  0  0  0  0  0  0  0  0  0
   37.7507   79.6840   54.1940 C   0  0  0  0  0  0  0  0  0  0  0  0
   36.4284   80.0551   54.2979 C   0  0  0  0  0  0  0  0  0  0  0  0
   35.9097   81.0821   53.5508 C   0  0  0  0  0  0  0  0  0  0  0  0
   36.6921   81.8167   52.6364 C   0  0  0  0  0  0  0  0  0  0  0  0
   36.0135   82.8567   51.8319 C   0  0  0  0  0  0  0  0  0  0  0  0
   34.6317   82.6860   51.6033 N   0  0  0  0  0  0  0  0  0  0  0  0
   33.9154   82.0795   50.5659 C   0  0  0  0  0  0  0  0  0  0  0  0
   34.5796   81.5123   49.6691 O   0  0  0  0  0  0  0  0  0  0  0  0
   32.4448   82.0698   50.4696 C   0  0  0  0  0  0  0  0  0  0  0  0
   31.6685   82.7404   51.3706 C   0  0  0  0  0  0  0  0  0  0  0  0
   30.2876   82.6783   51.2100 C   0  0  0  0  0  0  0  0  0  0  0  0
   29.4052   83.3911   52.1660 C   0  0  0  0  0  0  0  0  0  0  0  0
   29.6959   81.9769   50.1930 C   0  0  0  0  0  0  0  0  0  0  0  0
   30.5230   81.3069   49.2955 C   0  0  0  0  0  0  0  0  0  0  0  0
   31.9016   81.3491   49.4279 C   0  0  0  0  0  0  0  0  0  0  0  0
   32.6817   80.6399   48.4723 N   0  0  0  0  0  0  0  0  0  0  0  0
  1  2  1  0
  2  3  1  0
  3  4  2  0
  4  5  1  0
  5  6  2  0
  6  7  1  0
  7  8  2  0
  8  9  1  0
  9 10  1  0
 10 11  1  0
 11 12  2  0
 11 13  1  0
 13 14  2  0
 14 15  1  0
 15 16  1  0
 15 17  2  0
 17 18  1  0
 18 19  2  0
 19 20  1  0
  8  3  1  0
 19 13  1  0
M  END
$$$$
