
     RDKit          3D

 20 21  0  0  0  0  0  0  0  0999 V2000
   14.5676   92.7444   65.0294 C   0  0  0  0  0  0  0  0  0  0  0  0
   13.6717   92.5121   63.9701 O   0  0  0  0  0  0  0  0  0  0  0  0
   13.0080   93.5101   63.2779 C   0  0  0  0  0  0  0  0  0  0  0  0
   13.6558   94.2292   62.2966 C   0  0  0  0  0  0  0  0  0  0  0  0
   14.9411   93.9278   62.0409 F   0  0  0  0  0  0  0  0  0  0  0  0
   12.9507   95.2108   61.6382 C   0  0  0  0  0  0  0  0  0  0  0  0
   11.6377   95.5091   61.9089 C   0  0  0  0  0  0  0  0  0  0  0  0
   10.9411   96.5473   61.1913 N   0  0  0  0  0  0  0  0  0  0  0  0
   11.6255   97.3654   60.2360 C   0  0  0  0  0  0  0  0  0  0  0  0
   12.5655   96.8185   59.6318 O   0  0  0  0  0  0  0  0  0  0  0  0
   11.1870   98.6879   60.0655 N   0  0  0  0  0  0  0  0  0  0  0  0
   11.4397   99.4527   58.9078 C   0  0  0  0  0  0  0  0  0  0  0  0
   12.2741   98.9138   57.9040 C   0  0  0  0  0  0  0  0  0  0  0  0
   12.4990   99.6825   56.7929 C   0  0  0  0  0  0  0  0  0  0  0  0
   11.9451  100.9266   56.6440 C   0  0  0  0  0  0  0  0  0  0  0  0
   11.1654  101.4058   57.6043 N   0  0  0  0  0  0  0  0  0  0  0  0
   10.9101  100.6815   58.7293 C   0  0  0  0  0  0  0  0  0  0  0  0
   10.9976   94.7838   62.8928 C   0  0  0  0  0  0  0  0  0  0  0  0
   11.6913   93.7964   63.5618 C   0  0  0  0  0  0  0  0  0  0  0  0
   11.0081   93.1159   64.5204 F   0  0  0  0  0  0  0  0  0  0  0  0
  1  2  1  0
  2  3  1  0
  3  4  2  0
  4  5  1  0
  4  6  1  0
  6  7  2  0
  7  8  1  0
  8  9  1  0
  9 10  2  0
  9 11  1  0
 11 12  1  0
 12 13  2  0
 13 14  1  0
 14 15  2  0
 15 16  1  0
 16 17  2  0
  7 18  1  0
 18 19  2  0
 19 20  1  0
 19  3  1  0
 17 12  1  0
M  END
$$$$
