
     RDKit          3D

 28 31  0  0  0  0  0  0  0  0999 V2000
    9.5760   98.7020   55.4130 C   0  0  0  0  0  0  0  0  0  0  0  0
   10.8095   99.1922   55.4648 O   0  0  0  0  0  0  0  0  0  0  0  0
   12.0025   99.6737   55.2880 C   0  0  0  0  0  0  0  0  0  0  0  0
   12.5483  100.2615   54.1493 C   0  0  0  0  0  0  0  0  0  0  0  0
   13.7770  100.7131   54.0248 C   0  0  0  0  0  0  0  0  0  0  0  0
   14.7002  100.6553   55.0773 C   0  0  0  0  0  0  0  0  0  0  0  0
   14.1286  100.0663   56.2181 C   0  0  0  0  0  0  0  0  0  0  0  0
   12.9551   99.6162   56.3937 C   0  0  0  0  0  0  0  0  0  0  0  0
   12.4903   99.0155   57.6508 C   0  0  0  0  0  0  0  0  0  0  0  0
   12.8178   97.8491   58.2180 N   0  0  0  0  0  0  0  0  0  0  0  0
   12.0728   97.7207   59.3141 N   0  0  0  0  0  0  0  0  0  0  0  0
   12.1304   96.8303   60.4275 C   0  0  0  0  0  0  0  0  0  0  0  0
   13.1932   96.2579   60.9986 C   0  0  0  0  0  0  0  0  0  0  0  0
   13.2078   95.3360   61.9957 C   0  0  0  0  0  0  0  0  0  0  0  0
   11.9658   94.9116   62.5451 C   0  0  0  0  0  0  0  0  0  0  0  0
   11.8979   93.8925   63.5756 C   0  0  0  0  0  0  0  0  0  0  0  0
   10.7293   93.3796   63.8312 O   0  0  0  0  0  0  0  0  0  0  0  0
   12.9500   93.3753   64.2799 N   0  0  0  0  0  0  0  0  0  0  0  0
   12.7693   92.3638   65.3288 C   0  0  0  0  0  0  0  0  0  0  0  0
   12.5947   90.9283   65.1457 C   0  0  0  0  0  0  0  0  0  0  0  0
   13.9972   91.3817   65.4328 C   0  0  0  0  0  0  0  0  0  0  0  0
   10.8321   95.4775   61.9808 C   0  0  0  0  0  0  0  0  0  0  0  0
   10.8620   96.3768   61.0027 C   0  0  0  0  0  0  0  0  0  0  0  0
   11.2357   98.8044   59.4578 C   0  0  0  0  0  0  0  0  0  0  0  0
   10.3221   98.9961   60.4210 O   0  0  0  0  0  0  0  0  0  0  0  0
   11.4838   99.7091   58.3475 C   0  0  0  0  0  0  0  0  0  0  0  0
   10.8043  100.7928   58.1845 C   0  0  0  0  0  0  0  0  0  0  0  0
   10.0336  101.9767   57.9981 N   0  0  0  0  0  0  0  0  0  0  0  0
  1  2  1  0
  2  3  1  0
  3  4  2  0
  4  5  1  0
  5  6  2  0
  6  7  1  0
  7  8  2  0
  8  9  1  0
  9 10  2  0
 10 11  1  0
 11 12  1  0
 12 13  2  0
 13 14  1  0
 14 15  2  0
 15 16  1  0
 16 17  2  0
 16 18  1  0
 18 19  1  0
 19 20  1  0
 20 21  1  0
 15 22  1  0
 22 23  2  0
 11 24  1  0
 24 25  1  0
 24 26  2  0
 26 27  1  0
 27 28  3  0
  8  3  1  0
 26  9  1  0
 23 12  1  0
 21 19  1  0
M  END
$$$$
