
     RDKit          3D

 24 27  0  0  0  0  0  0  0  0999 V2000
   18.6564   54.1033    9.6708 N   0  0  0  0  0  1  0  0  0  0  0  0
   17.7317   54.5228   10.6530 C   0  0  0  0  0  0  0  0  0  0  0  0
   17.9176   54.1819   11.9872 C   0  0  0  0  0  0  0  0  0  0  0  0
   16.9813   54.6181   12.9131 C   0  0  0  0  0  0  0  0  0  0  0  0
   15.8801   55.3758   12.5416 C   0  0  0  0  0  0  0  0  0  0  0  0
   14.8933   55.8278   13.5635 C   0  0  0  0  0  0  0  0  0  0  0  0
   13.8479   56.6172   12.9631 N   0  0  0  0  0  0  0  0  0  0  0  0
   13.8573   58.0182   13.1288 C   0  0  0  0  0  0  0  0  0  0  0  0
   14.8231   58.6698   13.8085 N   0  0  0  0  0  0  0  0  0  0  0  0
   14.8396   60.0055   13.9713 C   0  0  0  0  0  0  0  0  0  0  0  0
   13.8582   60.7338   13.4391 N   0  0  0  0  0  0  0  0  0  0  0  0
   12.8636   60.1303   12.7467 C   0  0  0  0  0  0  0  0  0  0  0  0
   12.8388   58.7622   12.5751 C   0  0  0  0  0  0  0  0  0  0  0  0
   11.7101   58.4379   11.8306 C   0  0  0  0  0  0  0  0  0  0  0  0
   11.0907   59.5897   11.5736 N   0  0  0  0  0  0  0  0  0  0  0  0
   11.7611   60.5963   12.1088 N   0  0  0  0  0  0  0  0  0  0  0  0
   11.4126   61.9638   12.0463 C   0  0  0  0  0  0  0  0  0  0  0  0
   12.3780   62.9438   12.1475 C   0  0  0  0  0  0  0  0  0  0  0  0
   12.0269   64.2743   12.0853 C   0  0  0  0  0  0  0  0  0  0  0  0
   10.7181   64.6904   11.9217 C   0  0  0  0  0  0  0  0  0  0  0  0
    9.7645   63.6936   11.8222 C   0  0  0  0  0  0  0  0  0  0  0  0
   10.1021   62.3553   11.8829 C   0  0  0  0  0  0  0  0  0  0  0  0
   15.7123   55.7059   11.2041 C   0  0  0  0  0  0  0  0  0  0  0  0
   16.6370   55.2770   10.2784 C   0  0  0  0  0  0  0  0  0  0  0  0
  1  2  1  0
  2  3  2  0
  3  4  1  0
  4  5  2  0
  5  6  1  0
  6  7  1  0
  7  8  1  0
  8  9  2  0
  9 10  1  0
 10 11  2  0
 11 12  1  0
 12 13  2  0
 13 14  1  0
 14 15  2  0
 15 16  1  0
 16 17  1  0
 17 18  2  0
 18 19  1  0
 19 20  2  0
 20 21  1  0
 21 22  2  0
  5 23  1  0
 23 24  2  0
 24  2  1  0
 13  8  1  0
 22 17  1  0
 16 12  1  0
M  CHG  1   1   1
M  RAD  1   1   2
M  END
$$$$
