
     RDKit          3D

 23 25  0  0  0  0  0  0  0  0999 V2000
   15.2857  100.7655   55.2243 C   0  0  0  0  0  0  0  0  0  0  0  0
   14.1055  100.9712   56.1583 C   0  0  0  0  0  0  0  0  0  0  0  0
   13.0070   99.9831   55.8812 C   0  0  0  0  0  0  0  0  0  0  0  0
   12.0445  100.0515   56.9899 N   0  0  0  0  0  0  0  0  0  0  0  0
   10.9910  100.8344   57.0684 C   0  0  0  0  0  0  0  0  0  0  0  0
   10.3387  100.6046   58.2874 C   0  0  0  0  0  0  0  0  0  0  0  0
   11.0651   99.6406   58.9316 C   0  0  0  0  0  0  0  0  0  0  0  0
   10.8544   99.0357   60.2267 C   0  0  0  0  0  0  0  0  0  0  0  0
    9.5942   99.0408   60.6011 O   0  0  0  0  0  0  0  0  0  0  0  0
   11.7095   98.4553   61.1364 N   0  0  0  0  0  0  0  0  0  0  0  0
   11.0760   97.9181   62.3936 C   0  0  0  0  0  0  0  0  0  0  0  0
   11.2917   96.4024   62.2386 C   0  0  0  0  0  0  0  0  0  0  0  0
   12.6777   96.1518   62.3287 N   0  0  0  0  0  0  0  0  0  0  0  0
   13.1107   94.8703   62.7206 C   0  0  0  0  0  0  0  0  0  0  0  0
   12.5157   94.2720   63.9455 C   0  0  0  0  0  0  0  0  0  0  0  0
   12.9143   92.7849   63.9890 C   0  0  0  0  0  0  0  0  0  0  0  0
   14.3443   92.6198   63.8878 N   0  0  0  0  0  0  0  0  0  0  0  0
   14.7373   91.8933   62.6968 C   0  0  0  0  0  0  0  0  0  0  0  0
   15.0451   93.8809   64.0015 C   0  0  0  0  0  0  0  0  0  0  0  0
   14.6371   94.8612   62.9387 C   0  0  0  0  0  0  0  0  0  0  0  0
   13.3687   96.7318   61.2195 C   0  0  0  0  0  0  0  0  0  0  0  0
   13.1209   98.2505   61.1406 C   0  0  0  0  0  0  0  0  0  0  0  0
   12.1103   99.3332   58.0831 N   0  0  0  0  0  0  0  0  0  0  0  0
  1  2  1  0
  2  3  1  0
  3  4  1  0
  4  5  1  0
  5  6  2  0
  6  7  1  0
  7  8  1  0
  8  9  2  0
  8 10  1  0
 10 11  1  0
 11 12  1  0
 12 13  1  0
 13 14  1  0
 14 15  1  0
 15 16  1  0
 16 17  1  0
 17 18  1  0
 17 19  1  0
 19 20  1  0
 13 21  1  0
 21 22  1  0
  7 23  2  0
 23  4  1  0
 22 10  1  0
 20 14  1  0
M  END
$$$$
