
     RDKit          3D

 24 25  0  0  0  0  0  0  0  0999 V2000
   15.3777   94.9569   62.2813 C   0  0  0  0  0  0  0  0  0  0  0  0
   15.0786   94.9553   63.7737 C   0  0  0  0  0  0  0  0  0  0  0  0
   13.9389   94.0294   64.0576 C   0  0  0  0  0  0  0  0  0  0  0  0
   14.1345   92.7485   64.5520 C   0  0  0  0  0  0  0  0  0  0  0  0
   13.0730   91.8950   64.8131 C   0  0  0  0  0  0  0  0  0  0  0  0
   11.7848   92.3241   64.5772 C   0  0  0  0  0  0  0  0  0  0  0  0
   11.5697   93.5810   64.0907 C   0  0  0  0  0  0  0  0  0  0  0  0
   10.1629   94.0152   63.8463 C   0  0  0  0  0  0  0  0  0  0  0  0
   12.6402   94.4140   63.8379 C   0  0  0  0  0  0  0  0  0  0  0  0
   12.4017   95.7337   63.3262 N   0  0  0  0  0  0  0  0  0  0  0  0
   12.0367   95.9334   61.9717 C   0  0  0  0  0  0  0  0  0  0  0  0
   12.1287   95.0423   61.1188 O   0  0  0  0  0  0  0  0  0  0  0  0
   11.5398   97.2127   61.5577 N   0  0  0  0  0  0  0  0  0  0  0  0
   11.1279   97.4928   60.2161 C   0  0  0  0  0  0  0  0  0  0  0  0
   10.1921   98.7071   60.1524 C   0  0  0  0  0  0  0  0  0  0  0  0
    8.9738   98.2857   59.6159 O   0  0  0  0  0  0  0  0  0  0  0  0
   10.8408   99.6732   59.2301 C   0  0  0  0  0  0  0  0  0  0  0  0
   10.4393  100.9884   59.1203 C   0  0  0  0  0  0  0  0  0  0  0  0
   11.0907  101.8443   58.2348 C   0  0  0  0  0  0  0  0  0  0  0  0
   12.1413  101.4332   57.4440 C   0  0  0  0  0  0  0  0  0  0  0  0
   12.5496  100.1206   57.5468 C   0  0  0  0  0  0  0  0  0  0  0  0
   13.6000   99.6705   56.7699 O   0  0  0  0  0  0  0  0  0  0  0  0
   14.4683  100.6004   56.1669 C   0  0  0  0  0  0  0  0  0  0  0  0
   11.8875   99.2758   58.4378 C   0  0  0  0  0  0  0  0  0  0  0  0
  1  2  1  0
  2  3  1  0
  3  4  2  0
  4  5  1  0
  5  6  2  0
  6  7  1  0
  7  8  1  0
  7  9  2  0
  9 10  1  0
 10 11  1  0
 11 12  2  0
 11 13  1  0
 13 14  1  0
 14 15  1  0
 15 16  1  0
 15 17  1  0
 17 18  2  0
 18 19  1  0
 19 20  2  0
 20 21  1  0
 21 22  1  0
 22 23  1  0
 21 24  2  0
  9  3  1  0
 24 17  1  0
M  END
$$$$
