
     RDKit          3D

 19 20  0  0  0  0  0  0  0  0999 V2000
   16.8958   49.3622   14.5523 C   0  0  0  0  0  0  0  0  0  0  0  0
   17.1098   50.7593   14.9928 C   0  0  1  0  0  0  0  0  0  0  0  0
   16.9100   51.7924   13.9622 C   0  0  0  0  0  0  0  0  0  0  0  0
   17.2894   51.5619   12.6284 C   0  0  0  0  0  0  0  0  0  0  0  0
   17.1611   52.4864   11.6277 C   0  0  0  0  0  0  0  0  0  0  0  0
   16.6413   53.6904   11.9321 N   0  0  0  0  0  0  0  0  0  0  0  0
   16.2579   53.9636   13.2083 C   0  0  0  0  0  0  0  0  0  0  0  0
   16.3795   53.0446   14.2274 C   0  0  0  0  0  0  0  0  0  0  0  0
   15.9556   53.3670   15.4684 F   0  0  0  0  0  0  0  0  0  0  0  0
   16.6440   51.1141   16.3859 C   0  0  2  0  0  0  0  0  0  0  0  0
   17.2698   52.2177   17.0028 N   0  0  0  0  0  4  0  0  0  0  0  0
   16.4280   49.9323   17.2103 C   0  0  0  0  0  0  0  0  0  0  0  0
   17.4894   49.3906   17.7146 O   0  0  0  0  0  0  0  0  0  0  0  0
   15.2127   49.3308   17.5077 N   0  0  0  0  0  0  0  0  0  0  0  0
   13.8896   49.6981   17.1515 C   0  0  0  0  0  0  0  0  0  0  0  0
   13.0326   49.2647   18.3485 C   0  0  0  0  0  0  0  0  0  0  0  0
   13.9596   48.4374   19.1968 C   0  0  2  0  0  0  0  0  0  0  0  0
   14.5003   49.1840   20.2437 F   0  0  0  0  0  0  0  0  0  0  0  0
   15.0871   48.0543   18.2808 C   0  0  0  0  0  0  0  0  0  0  0  0
  2  1  1  6
  2  3  1  0
  3  4  2  0
  4  5  1  0
  5  6  2  0
  6  7  1  0
  7  8  2  0
  8  9  1  0
  2 10  1  0
 10 11  1  1
 10 12  1  0
 12 13  2  0
 12 14  1  0
 14 15  1  0
 15 16  1  0
 16 17  1  0
 17 18  1  1
 17 19  1  0
  8  3  1  0
 19 14  1  0
M  CHG  1  11   1
M  END
$$$$
