
     RDKit          3D

 23 25  0  0  0  0  0  0  0  0999 V2000
   33.6643   82.3234   48.9220 O   0  0  0  0  0  0  0  0  0  0  0  0
   32.4411   82.2028   48.6903 C   0  0  0  0  0  0  0  0  0  0  0  0
   31.9174   82.0635   47.3245 C   0  0  0  0  0  0  0  0  0  0  0  0
   32.4764   82.7896   46.2956 C   0  0  0  0  0  0  0  0  0  0  0  0
   32.0068   82.6812   44.9993 C   0  0  0  0  0  0  0  0  0  0  0  0
   30.9588   81.8419   44.6805 C   0  0  0  0  0  0  0  0  0  0  0  0
   30.4963   81.7506   43.3392 N   0  0  0  0  0  0  0  0  0  0  0  0
   29.7017   80.7831   42.8414 C   0  0  0  0  0  0  0  0  0  0  0  0
   29.4967   81.0716   41.5109 C   0  0  0  0  0  0  0  0  0  0  0  0
   30.1971   82.2368   41.2523 C   0  0  0  0  0  0  0  0  0  0  0  0
   30.7915   82.6204   42.3846 N   0  0  0  0  0  0  0  0  0  0  0  0
   30.4035   81.1177   45.7153 C   0  0  0  0  0  0  0  0  0  0  0  0
   30.8708   81.2223   47.0191 C   0  0  0  0  0  0  0  0  0  0  0  0
   31.5243   82.1992   49.7716 N   0  0  0  0  0  0  0  0  0  0  0  0
   30.0810   82.0939   49.5843 C   0  0  0  0  0  0  0  0  0  0  0  0
   29.5875   81.4983   50.8891 C   0  0  0  0  0  0  0  0  0  0  0  0
   30.5967   81.9358   51.9039 C   0  0  0  0  0  0  0  0  0  0  0  0
   30.8677   80.8687   52.7573 O   0  0  0  0  0  0  0  0  0  0  0  0
   30.0871   83.0648   52.7748 C   0  0  0  0  0  0  0  0  0  0  0  0
   29.7939   84.1319   51.9540 F   0  0  0  0  0  0  0  0  0  0  0  0
   28.9194   82.6889   53.4398 F   0  0  0  0  0  0  0  0  0  0  0  0
   31.0331   83.3447   53.7229 F   0  0  0  0  0  0  0  0  0  0  0  0
   31.8495   82.2957   51.1786 C   0  0  0  0  0  0  0  0  0  0  0  0
  1  2  2  0
  2  3  1  0
  3  4  2  0
  4  5  1  0
  5  6  2  0
  6  7  1  0
  7  8  1  0
  8  9  2  0
  9 10  1  0
 10 11  2  0
  6 12  1  0
 12 13  2  0
  2 14  1  0
 14 15  1  0
 15 16  1  0
 16 17  1  0
 17 18  1  0
 17 19  1  0
 19 20  1  0
 19 21  1  0
 19 22  1  0
 17 23  1  0
 13  3  1  0
 23 14  1  0
 11  7  1  0
M  END
$$$$
