
     RDKit          3D

 33 37  0  0  0  0  0  0  0  0999 V2000
   10.9141   60.6691   12.2950 C   0  0  0  0  0  0  0  0  0  0  0  0
   12.3152   60.5443   12.2996 O   0  0  0  0  0  0  0  0  0  0  0  0
   12.8933   59.3102   12.5192 C   0  0  0  0  0  0  0  0  0  0  0  0
   12.3286   58.1766   11.9806 C   0  0  0  0  0  0  0  0  0  0  0  0
   12.8972   56.9331   12.1926 C   0  0  0  0  0  0  0  0  0  0  0  0
   14.0527   56.8089   12.9562 C   0  0  0  0  0  0  0  0  0  0  0  0
   14.6711   55.5627   13.2012 N   0  0  0  0  0  0  0  0  0  0  0  0
   15.6637   55.0549   12.3219 C   0  0  0  0  0  0  0  0  0  0  0  0
   16.0052   55.7096   11.3122 O   0  0  0  0  0  0  0  0  0  0  0  0
   16.3221   53.7737   12.5439 C   0  0  0  0  0  0  0  0  0  0  0  0
   17.2832   53.2785   11.6957 C   0  0  0  0  0  0  0  0  0  0  0  0
   17.9082   52.0556   11.9122 C   0  0  0  0  0  0  0  0  0  0  0  0
   17.5768   51.2922   13.0013 C   0  0  0  0  0  0  0  0  0  0  0  0
   16.6070   51.7823   13.8655 C   0  0  0  0  0  0  0  0  0  0  0  0
   16.2630   51.0314   14.9607 C   0  0  0  0  0  0  0  0  0  0  0  0
   15.2914   51.4679   15.8730 C   0  0  0  0  0  0  0  0  0  0  0  0
   14.9567   50.6679   16.9944 N   0  0  0  0  0  0  0  0  0  0  0  0
   16.0836   50.0723   17.7403 C   0  0  0  0  0  0  0  0  0  0  0  0
   15.5404   49.1702   18.8265 C   0  0  0  0  0  0  0  0  0  0  0  0
   14.6385   48.1522   18.1637 C   0  0  0  0  0  0  0  0  0  0  0  0
   13.4406   48.8576   17.5972 C   0  0  0  0  0  0  0  0  0  0  0  0
   13.6609   50.3701   17.4930 C   0  0  0  0  0  0  0  0  0  0  0  0
   14.6833   52.6802   15.6432 C   0  0  0  0  0  0  0  0  0  0  0  0
   15.0292   53.4519   14.5277 C   0  0  0  0  0  0  0  0  0  0  0  0
   15.9860   53.0001   13.6479 C   0  0  0  0  0  0  0  0  0  0  0  0
   14.3490   54.7499   14.3201 C   0  0  0  0  0  0  0  0  0  0  0  0
   13.4776   55.1462   15.1342 O   0  0  0  0  0  0  0  0  0  0  0  0
   14.6180   57.9426   13.4952 C   0  0  0  0  0  0  0  0  0  0  0  0
   15.7702   57.7946   14.2532 O   0  0  0  0  0  0  0  0  0  0  0  0
   16.9657   58.3570   13.7434 C   0  0  0  0  0  0  0  0  0  0  0  0
   14.0383   59.2009   13.2779 C   0  0  0  0  0  0  0  0  0  0  0  0
   14.6270   60.3247   13.8313 O   0  0  0  0  0  0  0  0  0  0  0  0
   13.9500   61.2551   14.6346 C   0  0  0  0  0  0  0  0  0  0  0  0
  1  2  1  0
  2  3  1  0
  3  4  2  0
  4  5  1  0
  5  6  2  0
  6  7  1  0
  7  8  1  0
  8  9  2  0
  8 10  1  0
 10 11  2  0
 11 12  1  0
 12 13  2  0
 13 14  1  0
 14 15  2  0
 15 16  1  0
 16 17  1  0
 17 18  1  0
 18 19  1  0
 19 20  1  0
 20 21  1  0
 21 22  1  0
 16 23  2  0
 23 24  1  0
 24 25  2  0
 24 26  1  0
 26 27  2  0
  6 28  1  0
 28 29  1  0
 29 30  1  0
 28 31  2  0
 31 32  1  0
 32 33  1  0
 31  3  1  0
 26  7  1  0
 25 10  1  0
 25 14  1  0
 22 17  1  0
M  END
$$$$
