
     RDKit          3D

 20 21  0  0  0  0  0  0  0  0999 V2000
   -8.3600   59.2376   32.8367 C   0  0  0  0  0  0  0  0  0  0  0  0
   -9.3578   59.2463   31.7092 C   0  0  0  0  0  0  0  0  0  0  0  0
  -10.7540   59.5842   32.1581 C   0  0  0  0  0  0  0  0  0  0  0  0
  -11.4142   60.0174   30.8658 C   0  0  0  0  0  0  0  0  0  0  0  0
  -10.3148   60.4815   29.9471 C   0  0  0  0  0  0  0  0  0  0  0  0
   -9.0857   60.3357   30.7525 C   0  0  0  0  0  0  0  0  0  0  0  0
   -8.0183   61.0002   30.6512 N   0  0  0  0  0  0  0  0  0  0  0  0
   -6.7703   60.5273   30.9846 O   0  0  0  0  0  0  0  0  0  0  0  0
   -5.6477   61.2765   30.6455 C   0  0  0  0  0  0  0  0  0  0  0  0
   -5.8254   62.4998   30.4109 O   0  0  0  0  0  0  0  0  0  0  0  0
   -4.3135   60.6675   30.5646 C   0  0  0  0  0  0  0  0  0  0  0  0
   -3.2248   61.3959   30.1462 C   0  0  0  0  0  0  0  0  0  0  0  0
   -1.9530   60.8490   30.0594 C   0  0  0  0  0  0  0  0  0  0  0  0
   -1.7891   59.5211   30.4098 C   0  0  0  0  0  0  0  0  0  0  0  0
   -0.4199   58.9467   30.3122 C   0  0  0  0  0  0  0  0  0  0  0  0
    0.0852   59.2033   29.0582 F   0  0  0  0  0  0  0  0  0  0  0  0
   -0.4475   57.5716   30.5463 F   0  0  0  0  0  0  0  0  0  0  0  0
    0.4361   59.5047   31.2470 F   0  0  0  0  0  0  0  0  0  0  0  0
   -2.8781   58.7835   30.8309 C   0  0  0  0  0  0  0  0  0  0  0  0
   -4.1488   59.3643   30.9077 C   0  0  0  0  0  0  0  0  0  0  0  0
  1  2  1  0
  2  3  1  0
  3  4  1  0
  4  5  1  0
  5  6  1  0
  6  7  2  0
  7  8  1  0
  8  9  1  0
  9 10  2  0
  9 11  1  0
 11 12  2  0
 12 13  1  0
 13 14  2  0
 14 15  1  0
 15 16  1  0
 15 17  1  0
 15 18  1  0
 14 19  1  0
 19 20  2  0
  6  2  1  0
 20 11  1  0
M  END
$$$$
