
     RDKit          3D

 23 24  0  0  0  0  0  0  0  0999 V2000
   38.8712   80.6198   52.8069 C   0  0  0  0  0  0  0  0  0  0  0  0
   38.0407   81.3994   51.9208 N   0  0  0  0  0  0  0  0  0  0  0  0
   38.6691   82.1479   50.8577 C   0  0  0  0  0  0  0  0  0  0  0  0
   36.6268   81.4541   52.0605 C   0  0  0  0  0  0  0  0  0  0  0  0
   36.0214   80.8107   52.9626 O   0  0  0  0  0  0  0  0  0  0  0  0
   35.8501   82.2208   51.2068 O   0  0  0  0  0  0  0  0  0  0  0  0
   34.4930   81.9831   50.9221 C   0  0  0  0  0  0  0  0  0  0  0  0
   34.0080   83.0101   49.9622 C   0  0  0  0  0  0  0  0  0  0  0  0
   34.7076   82.7543   48.6877 N   0  0  0  0  0  0  0  0  0  0  0  0
   34.0238   81.6294   48.1387 C   0  0  0  0  0  0  0  0  0  0  0  0
   34.4833   80.8070   47.2534 N   0  0  0  0  0  0  0  0  0  0  0  0
   35.5477   81.1179   46.4651 O   0  0  0  0  0  0  0  0  0  0  0  0
   32.6682   81.5292   48.7431 C   0  0  0  0  0  0  0  0  0  0  0  0
   31.6291   81.4625   47.7136 C   0  0  0  0  0  0  0  0  0  0  0  0
   30.8032   81.3992   46.8883 N   0  0  0  0  0  0  0  0  0  0  0  0
   32.5780   82.8277   49.5000 C   0  0  0  0  0  0  0  0  0  0  0  0
   31.5717   82.8535   50.5447 C   0  0  0  0  0  0  0  0  0  0  0  0
   30.7958   81.7304   50.7522 C   0  0  0  0  0  0  0  0  0  0  0  0
   29.8197   81.6491   51.7241 C   0  0  0  0  0  0  0  0  0  0  0  0
   29.6448   82.7779   52.5085 C   0  0  0  0  0  0  0  0  0  0  0  0
   28.6986   82.7479   53.4764 F   0  0  0  0  0  0  0  0  0  0  0  0
   30.3990   83.9182   52.3330 C   0  0  0  0  0  0  0  0  0  0  0  0
   31.3658   83.9549   51.3472 C   0  0  0  0  0  0  0  0  0  0  0  0
  1  2  1  0
  2  3  1  0
  2  4  1  0
  4  5  2  0
  4  6  1  0
  6  7  1  0
  7  8  1  0
  8  9  1  0
  9 10  1  0
 10 11  2  3
 11 12  1  0
 10 13  1  0
 13 14  1  0
 14 15  3  0
 13 16  1  0
 16 17  1  0
 17 18  2  0
 18 19  1  0
 19 20  2  0
 20 21  1  0
 20 22  1  0
 22 23  2  0
 16  8  1  0
 23 17  1  0
M  END
$$$$
