
     RDKit          3D

 25 27  0  0  0  0  0  0  0  0999 V2000
   32.0912   81.3902   46.2138 N   0  0  0  0  0  0  0  0  0  0  0  0
   31.8445   81.5754   47.3234 C   0  0  0  0  0  0  0  0  0  0  0  0
   31.5283   81.8348   48.7241 C   0  0  0  0  0  0  0  0  0  0  0  0
   30.2309   81.9774   49.1243 C   0  0  0  0  0  0  0  0  0  0  0  0
   29.9288   82.2395   50.4294 C   0  0  0  0  0  0  0  0  0  0  0  0
   30.9887   82.3594   51.3538 C   0  0  0  0  0  0  0  0  0  0  0  0
   30.5915   82.5815   52.7752 C   0  0  0  0  0  0  0  0  0  0  0  0
   30.4846   81.3485   53.4407 F   0  0  0  0  0  0  0  0  0  0  0  0
   29.2569   83.0425   52.7957 F   0  0  0  0  0  0  0  0  0  0  0  0
   31.3140   83.4901   53.4413 F   0  0  0  0  0  0  0  0  0  0  0  0
   32.2792   82.2214   50.9658 C   0  0  0  0  0  0  0  0  0  0  0  0
   33.4336   82.4226   51.8207 C   0  0  0  0  0  0  0  0  0  0  0  0
   34.6776   81.8727   51.4194 N   0  0  0  0  0  0  0  0  0  0  0  0
   34.9931   80.4281   51.4535 C   0  0  0  0  0  0  0  0  0  0  0  0
   34.3436   79.6591   52.2097 O   0  0  0  0  0  0  0  0  0  0  0  0
   36.0305   80.1861   50.5706 O   0  0  0  0  0  0  0  0  0  0  0  0
   36.2727   81.3778   49.9099 C   0  0  0  0  0  0  0  0  0  0  0  0
   35.8978   82.4232   50.9350 C   0  0  2  0  0  0  0  0  0  0  0  0
   36.8775   82.5630   52.0576 C   0  0  0  0  0  0  0  0  0  0  0  0
   37.2779   81.3312   52.7709 C   0  0  0  0  0  0  0  0  0  0  0  0
   38.4371   81.6289   53.7436 C   0  0  0  0  0  0  0  0  0  0  0  0
   39.6462   82.0921   52.9558 C   0  0  0  0  0  0  0  0  0  0  0  0
   39.2602   82.3694   51.5080 C   0  0  0  0  0  0  0  0  0  0  0  0
   38.0881   83.3133   51.5288 C   0  0  0  0  0  0  0  0  0  0  0  0
   32.5484   81.9525   49.6238 C   0  0  0  0  0  0  0  0  0  0  0  0
  1  2  3  0
  2  3  1  0
  3  4  2  0
  4  5  1  0
  5  6  2  0
  6  7  1  0
  7  8  1  0
  7  9  1  0
  7 10  1  0
  6 11  1  0
 11 12  1  0
 12 13  1  0
 13 14  1  0
 14 15  2  0
 14 16  1  0
 16 17  1  0
 17 18  1  0
 18 19  1  1
 19 20  1  0
 20 21  1  0
 21 22  1  0
 22 23  1  0
 23 24  1  0
 11 25  2  0
 25  3  1  0
 18 13  1  0
 24 19  1  0
M  END
$$$$
