
     RDKit          3D

 25 27  0  0  0  0  0  0  0  0999 V2000
   11.9831   90.5283   66.5606 C   0  0  0  0  0  0  0  0  0  0  0  0
   11.9140   91.1810   65.2174 C   0  0  0  0  0  0  0  0  0  0  0  0
   10.8220   91.6604   64.5484 C   0  0  0  0  0  0  0  0  0  0  0  0
   11.3079   92.1382   63.3920 N   0  0  0  0  0  0  0  0  0  0  0  0
   12.5960   91.9876   63.3081 N   0  0  0  0  0  0  0  0  0  0  0  0
   13.4390   92.3735   62.2088 C   0  0  0  0  0  0  0  0  0  0  0  0
   14.0278   93.7352   62.3489 C   0  0  0  0  0  0  0  0  0  0  0  0
   13.0724   94.8103   62.0864 N   0  0  0  0  0  0  0  0  0  0  0  0
   13.2365   95.5831   60.9117 C   0  0  0  0  0  0  0  0  0  0  0  0
   14.0367   95.1540   60.0362 O   0  0  0  0  0  0  0  0  0  0  0  0
   12.5044   96.8365   60.7082 C   0  0  0  0  0  0  0  0  0  0  0  0
   11.6561   97.5397   61.5043 C   0  0  0  0  0  0  0  0  0  0  0  0
   11.2555   98.6406   60.8097 N   0  0  0  0  0  0  0  0  0  0  0  0
   11.7967   98.6824   59.6189 N   0  0  0  0  0  0  0  0  0  0  0  0
   11.6659   99.6295   58.5617 C   0  0  0  0  0  0  0  0  0  0  0  0
   10.7357  100.6409   58.6201 C   0  0  0  0  0  0  0  0  0  0  0  0
   10.6629  101.5428   57.5568 C   0  0  0  0  0  0  0  0  0  0  0  0
    9.6742  102.6527   57.5774 C   0  0  0  0  0  0  0  0  0  0  0  0
   11.4904  101.4159   56.5017 N   0  0  0  0  0  0  0  0  0  0  0  0
   12.3932  100.4365   56.4428 C   0  0  0  0  0  0  0  0  0  0  0  0
   13.2913  100.3357   55.2500 C   0  0  0  0  0  0  0  0  0  0  0  0
   12.4522   99.5810   57.4661 N   0  0  0  0  0  0  0  0  0  0  0  0
   12.5790   97.5643   59.5382 C   0  0  0  0  0  0  0  0  0  0  0  0
   13.3989   97.1875   58.3472 C   0  0  0  0  0  0  0  0  0  0  0  0
   13.0255   91.3916   64.4276 C   0  0  0  0  0  0  0  0  0  0  0  0
  1  2  1  0
  2  3  1  0
  3  4  2  0
  4  5  1  0
  5  6  1  0
  6  7  1  0
  7  8  1  0
  8  9  1  0
  9 10  2  0
  9 11  1  0
 11 12  1  0
 12 13  2  0
 13 14  1  0
 14 15  1  0
 15 16  2  0
 16 17  1  0
 17 18  1  0
 17 19  2  0
 19 20  1  0
 20 21  1  0
 20 22  2  0
 14 23  1  0
 23 24  1  0
  5 25  1  0
 25  2  2  0
 23 11  2  0
 22 15  1  0
M  END
$$$$
