
     RDKit          3D

 23 24  0  0  0  0  0  0  0  0999 V2000
   16.7236  101.5663   55.1681 C   0  0  0  0  0  0  0  0  0  0  0  0
   15.2080  101.8043   55.1552 C   0  0  0  0  0  0  0  0  0  0  0  0
   14.9868  103.2192   55.5810 C   0  0  0  0  0  0  0  0  0  0  0  0
   14.6466  100.8324   56.0740 N   0  0  0  0  0  0  0  0  0  0  0  0
   13.2528  100.6904   56.2856 C   0  0  0  0  0  0  0  0  0  0  0  0
   12.5302  101.4782   55.5831 O   0  0  0  0  0  0  0  0  0  0  0  0
   12.6508   99.7436   57.2122 C   0  0  0  0  0  0  0  0  0  0  0  0
   12.9143   99.8206   58.5630 C   0  0  0  0  0  0  0  0  0  0  0  0
   12.3389   98.9196   59.4281 C   0  0  0  0  0  0  0  0  0  0  0  0
   11.4988   97.9398   58.9447 C   0  0  0  0  0  0  0  0  0  0  0  0
   10.8849   96.9882   59.8172 N   0  0  0  0  0  0  0  0  0  0  0  0
   11.1479   97.0723   61.2186 C   0  0  0  0  0  0  0  0  0  0  0  0
   12.0320   96.0096   61.7095 C   0  0  0  0  0  0  0  0  0  0  0  0
   12.9611   95.4965   61.0068 O   0  0  0  0  0  0  0  0  0  0  0  0
   11.8606   95.5170   63.0247 N   0  0  0  0  0  0  0  0  0  0  0  0
   12.4798   94.2823   63.4105 C   0  0  0  0  0  0  0  0  0  0  0  0
   13.7891   94.1128   63.0121 C   0  0  0  0  0  0  0  0  0  0  0  0
   14.4353   92.9500   63.3522 C   0  0  0  0  0  0  0  0  0  0  0  0
   13.7626   91.9950   64.0752 C   0  0  0  0  0  0  0  0  0  0  0  0
   12.4529   92.1744   64.4688 C   0  0  0  0  0  0  0  0  0  0  0  0
   11.7933   93.3319   64.1363 C   0  0  0  0  0  0  0  0  0  0  0  0
   11.2462   97.8816   57.5685 C   0  0  0  0  0  0  0  0  0  0  0  0
   11.8166   98.7772   56.6985 C   0  0  0  0  0  0  0  0  0  0  0  0
  1  2  1  0
  2  3  1  0
  2  4  1  0
  4  5  1  0
  5  6  2  0
  5  7  1  0
  7  8  2  0
  8  9  1  0
  9 10  2  0
 10 11  1  0
 11 12  1  0
 12 13  1  0
 13 14  2  0
 13 15  1  0
 15 16  1  0
 16 17  2  0
 17 18  1  0
 18 19  2  0
 19 20  1  0
 20 21  2  0
 10 22  1  0
 22 23  2  0
 23  7  1  0
 21 16  1  0
M  END
$$$$
