
     RDKit          3D

 27 31  0  0  0  0  0  0  0  0999 V2000
   41.9145   84.3346   51.9495 C   0  0  0  0  0  0  0  0  0  0  0  0
   40.9580   83.6104   52.8286 C   0  0  0  0  0  0  0  0  0  0  0  0
   41.2339   83.4789   54.1713 C   0  0  0  0  0  0  0  0  0  0  0  0
   40.3392   82.8084   54.9627 C   0  0  0  0  0  0  0  0  0  0  0  0
   39.1618   82.2556   54.4586 C   0  0  0  0  0  0  0  0  0  0  0  0
   38.8910   82.3869   53.1271 C   0  0  0  0  0  0  0  0  0  0  0  0
   37.7111   81.8150   52.5779 N   0  0  0  0  0  0  0  0  0  0  0  0
   36.3875   81.7479   53.1931 C   0  0  0  0  0  0  0  0  0  0  0  0
   36.0795   81.5785   54.3927 O   0  0  0  0  0  0  0  0  0  0  0  0
   35.8408   81.9524   51.8424 C   0  0  0  0  0  0  0  0  0  0  0  0
   34.6564   81.2363   51.5168 N   0  0  0  0  0  0  0  0  0  0  0  0
   33.4725   81.7928   50.9946 C   0  0  0  0  0  0  0  0  0  0  0  0
   33.5366   82.6926   49.9547 C   0  0  0  0  0  0  0  0  0  0  0  0
   32.3795   83.2611   49.4289 C   0  0  0  0  0  0  0  0  0  0  0  0
   31.1651   82.8958   49.9808 C   0  0  0  0  0  0  0  0  0  0  0  0
   31.0771   81.9972   51.0215 C   0  0  0  0  0  0  0  0  0  0  0  0
   32.2238   81.4490   51.5254 C   0  0  0  0  0  0  0  0  0  0  0  0
   29.6448   81.8554   51.3403 C   0  0  0  0  0  0  0  0  0  0  0  0
   28.9907   82.8812   50.7067 O   0  0  0  0  0  0  0  0  0  0  0  0
   29.7926   83.3090   49.6573 C   0  0  0  0  0  0  0  0  0  0  0  0
   37.1145   81.1590   51.4762 C   0  0  0  0  0  0  0  0  0  0  0  0
   37.5157   81.3936   50.1034 C   0  0  0  0  0  0  0  0  0  0  0  0
   37.4858   82.6185   49.4569 C   0  0  0  0  0  0  0  0  0  0  0  0
   37.9454   82.4369   48.1465 C   0  0  0  0  0  0  0  0  0  0  0  0
   38.2310   81.0885   48.0781 C   0  0  0  0  0  0  0  0  0  0  0  0
   37.9630   80.5586   49.2255 O   0  0  0  0  0  0  0  0  0  0  0  0
   39.8059   83.0723   52.3203 C   0  0  0  0  0  0  0  0  0  0  0  0
  1  2  1  0
  2  3  2  0
  3  4  1  0
  4  5  2  0
  5  6  1  0
  6  7  1  0
  7  8  1  0
  8  9  2  0
  8 10  1  0
 10 11  1  0
 11 12  1  0
 12 13  2  0
 13 14  1  0
 14 15  2  0
 15 16  1  0
 16 17  2  0
 16 18  1  0
 18 19  1  0
 19 20  1  0
 10 21  1  0
 21 22  1  0
 22 23  2  0
 23 24  1  0
 24 25  2  0
 25 26  1  0
  6 27  2  0
 27  2  1  0
 21  7  1  0
 26 22  1  0
 17 12  1  0
 20 15  1  0
M  END
$$$$
