
     RDKit          3D

 31 35  0  0  0  0  0  0  0  0999 V2000
   10.7161   97.4177   53.6854 C   0  0  0  0  0  0  0  0  0  0  0  0
   11.7778   98.3611   54.1917 C   0  0  0  0  0  0  0  0  0  0  0  0
   12.3268   99.0737   53.0740 N   0  0  0  0  0  0  0  0  0  0  0  0
   13.5762   99.7157   53.2187 C   0  0  0  0  0  0  0  0  0  0  0  0
   14.3183  100.1596   52.2150 N   0  0  0  0  0  0  0  0  0  0  0  0
   15.5060  100.7739   52.3703 C   0  0  0  0  0  0  0  0  0  0  0  0
   16.2603  101.2066   51.2693 N   0  0  0  0  0  0  0  0  0  0  0  0
   15.8611  101.2756   49.8997 C   0  0  0  0  0  0  0  0  0  0  0  0
   15.8471   99.9932   49.1293 C   0  0  0  0  0  0  0  0  0  0  0  0
   16.7590  100.6017   48.0491 C   0  0  0  0  0  0  0  0  0  0  0  0
   16.9908  101.7376   48.9968 C   0  0  0  0  0  0  0  0  0  0  0  0
   15.9451  100.9361   53.6296 N   0  0  0  0  0  0  0  0  0  0  0  0
   17.0093  101.4679   54.1621 N   0  0  0  0  0  0  0  0  0  0  0  0
   17.0418  101.4163   55.4898 C   0  0  0  0  0  0  0  0  0  0  0  0
   15.8836  100.7878   55.8583 C   0  0  0  0  0  0  0  0  0  0  0  0
   15.4173  100.4787   57.1936 C   0  0  0  0  0  0  0  0  0  0  0  0
   14.2294   99.9290   57.3696 C   0  0  0  0  0  0  0  0  0  0  0  0
   12.9737  100.2208   56.7539 N   0  0  0  0  0  0  0  0  0  0  0  0
   11.9959   99.3531   57.3086 C   0  0  0  0  0  0  0  0  0  0  0  0
   10.7692   99.3019   57.0241 O   0  0  0  0  0  0  0  0  0  0  0  0
   12.6052   98.5104   58.2695 N   0  0  0  0  0  0  0  0  0  0  0  0
   13.9943   98.8365   58.3379 C   0  0  0  0  0  0  0  0  0  0  0  0
   14.8301   98.2772   59.0930 O   0  0  0  0  0  0  0  0  0  0  0  0
   15.2057  100.4911   54.6932 C   0  0  0  0  0  0  0  0  0  0  0  0
   14.0239   99.8829   54.4656 N   0  0  0  0  0  0  0  0  0  0  0  0
   11.3409   99.2180   55.3122 C   0  0  0  0  0  0  0  0  0  0  0  0
   11.3096  100.5818   55.1980 C   0  0  0  0  0  0  0  0  0  0  0  0
   10.9088  101.4367   56.1997 C   0  0  0  0  0  0  0  0  0  0  0  0
   10.5097  100.8525   57.4107 C   0  0  0  0  0  0  0  0  0  0  0  0
   10.5443   99.4977   57.5161 C   0  0  0  0  0  0  0  0  0  0  0  0
   10.9462   98.6810   56.5036 N   0  0  0  0  0  0  0  0  0  0  0  0
  1  2  1  0
  2  3  1  0
  3  4  1  0
  4  5  1  0
  5  6  2  0
  6  7  1  0
  7  8  1  0
  8  9  1  0
  9 10  1  0
 10 11  1  0
  6 12  1  0
 12 13  1  0
 13 14  2  0
 14 15  1  0
 15 16  1  0
 16 17  2  0
 17 18  1  0
 18 19  1  0
 19 20  2  0
 19 21  1  0
 21 22  1  0
 22 23  2  0
 15 24  2  0
 24 25  1  0
  2 26  1  0
 26 27  2  0
 27 28  1  0
 28 29  2  0
 29 30  1  0
 30 31  2  0
 25  4  2  0
 31 26  1  0
 11  8  1  0
 24 12  1  0
 22 17  1  0
M  END
$$$$
