
     RDKit          3D

 12 13  0  0  0  0  0  0  0  0999 V2000
   10.5396  101.6287   57.1904 Br  0  0  0  0  0  0  0  0  0  0  0  0
   11.0724  100.1401   58.2451 C   0  0  0  0  0  0  0  0  0  0  0  0
   12.3861   99.9489   58.6184 C   0  0  0  0  0  0  0  0  0  0  0  0
   12.7685   98.8541   59.3922 C   0  0  0  0  0  0  0  0  0  0  0  0
   11.8412   97.9430   59.7983 C   0  0  0  0  0  0  0  0  0  0  0  0
   12.2493   96.7842   60.6180 C   0  0  0  0  0  0  0  0  0  0  0  0
   11.4545   95.7905   61.0387 N   0  0  0  0  0  0  0  0  0  0  0  0
   12.1912   94.9364   61.7502 N   0  0  0  0  0  0  0  0  0  0  0  0
   13.4500   95.4024   61.7715 C   0  0  0  0  0  0  0  0  0  0  0  0
   13.4367   96.5164   61.0769 O   0  0  0  0  0  0  0  0  0  0  0  0
   10.5251   98.1048   59.4434 C   0  0  0  0  0  0  0  0  0  0  0  0
   10.1526   99.1953   58.6742 C   0  0  0  0  0  0  0  0  0  0  0  0
  1  2  1  0
  2  3  2  0
  3  4  1  0
  4  5  2  0
  5  6  1  0
  6  7  2  0
  7  8  1  0
  8  9  2  0
  9 10  1  0
  5 11  1  0
 11 12  2  0
 12  2  1  0
 10  6  1  0
M  END
$$$$
