
     RDKit          3D

 20 21  0  0  0  0  0  0  0  0999 V2000
   14.2799   91.7316   65.6253 C   0  0  0  0  0  0  0  0  0  0  0  0
   14.2626   92.6978   64.4791 C   0  0  0  0  0  0  0  0  0  0  0  0
   15.0217   92.2421   63.2669 C   0  0  0  0  0  0  0  0  0  0  0  0
   12.8995   93.0256   64.1419 N   0  0  0  0  0  0  0  0  0  0  0  0
   12.6519   94.0693   63.2211 C   0  0  0  0  0  0  0  0  0  0  0  0
   11.3931   94.3644   62.7679 C   0  0  0  0  0  0  0  0  0  0  0  0
   11.1596   95.3854   61.8448 C   0  0  0  0  0  0  0  0  0  0  0  0
   12.2391   96.1018   61.3911 C   0  0  0  0  0  0  0  0  0  0  0  0
   12.0215   97.1725   60.4238 C   0  0  0  0  0  0  0  0  0  0  0  0
   10.8461   97.5553   60.1714 O   0  0  0  0  0  0  0  0  0  0  0  0
   13.0511   97.8427   59.7176 N   0  0  0  0  0  0  0  0  0  0  0  0
   12.7616   98.8229   58.7189 C   0  0  0  0  0  0  0  0  0  0  0  0
   13.3055   98.7481   57.4507 C   0  0  0  0  0  0  0  0  0  0  0  0
   12.9730   99.7307   56.5672 C   0  0  0  0  0  0  0  0  0  0  0  0
   12.1304  100.7783   56.8820 C   0  0  0  0  0  0  0  0  0  0  0  0
   11.5751  100.8667   58.1567 C   0  0  0  0  0  0  0  0  0  0  0  0
   10.7056  101.9270   58.5009 N   0  0  0  0  0  0  0  0  0  0  0  0
   11.9177   99.8624   59.0520 C   0  0  0  0  0  0  0  0  0  0  0  0
   13.4940   95.7768   61.8696 C   0  0  0  0  0  0  0  0  0  0  0  0
   13.6770   94.7925   62.7538 N   0  0  0  0  0  0  0  0  0  0  0  0
  1  2  1  0
  2  3  1  0
  2  4  1  0
  4  5  1  0
  5  6  2  0
  6  7  1  0
  7  8  2  0
  8  9  1  0
  9 10  2  0
  9 11  1  0
 11 12  1  0
 12 13  2  0
 13 14  1  0
 14 15  2  0
 15 16  1  0
 16 17  1  0
 16 18  2  0
  8 19  1  0
 19 20  2  0
 20  5  1  0
 18 12  1  0
M  END
$$$$
