
     RDKit          3D

 23 25  0  0  0  0  0  0  0  0999 V2000
   15.7840   47.1418   19.4652 F   0  0  0  0  0  0  0  0  0  0  0  0
   15.7732   48.2117   18.6321 C   0  0  0  0  0  0  0  0  0  0  0  0
   16.9137   48.7263   18.0572 C   0  0  0  0  0  0  0  0  0  0  0  0
   16.8070   49.8357   17.2086 C   0  0  0  0  0  0  0  0  0  0  0  0
   15.6181   50.4459   16.9140 C   0  0  0  0  0  0  0  0  0  0  0  0
   15.4705   51.5965   16.0356 C   0  0  0  0  0  0  0  0  0  0  0  0
   16.5002   52.3229   15.7017 C   0  0  0  0  0  0  0  0  0  0  0  0
   16.3381   53.7294   15.2621 C   0  0  0  0  0  0  0  0  0  0  0  0
   15.7127   53.7684   13.9777 N   0  0  0  0  0  0  0  0  0  0  0  0
   14.3222   54.0336   14.1240 C   0  0  0  0  0  0  0  0  0  0  0  0
   13.9720   55.5199   14.1086 C   0  0  0  0  0  0  0  0  0  0  0  0
   14.6852   56.1680   13.0572 N   0  0  0  0  0  0  0  0  0  0  0  0
   14.6066   57.5829   12.8862 C   0  0  0  0  0  0  0  0  0  0  0  0
   13.4410   58.2367   13.1661 N   0  0  0  0  0  0  0  0  0  0  0  0
   13.3087   59.5577   13.0228 C   0  0  0  0  0  0  0  0  0  0  0  0
   14.3731   60.3110   12.5777 C   0  0  0  0  0  0  0  0  0  0  0  0
   15.5451   59.6251   12.3002 C   0  0  0  0  0  0  0  0  0  0  0  0
   15.6324   58.3006   12.4584 N   0  0  0  0  0  0  0  0  0  0  0  0
   15.4989   55.3551   12.1652 C   0  0  0  0  0  0  0  0  0  0  0  0
   16.4439   54.5813   13.0776 C   0  0  0  0  0  0  0  0  0  0  0  0
   14.4845   49.9064   17.5077 C   0  0  0  0  0  0  0  0  0  0  0  0
   13.2691   50.4839   17.2444 F   0  0  0  0  0  0  0  0  0  0  0  0
   14.5731   48.8201   18.3407 C   0  0  0  0  0  0  0  0  0  0  0  0
  1  2  1  0
  2  3  2  0
  3  4  1  0
  4  5  2  0
  5  6  1  0
  6  7  2  0
  7  8  1  0
  8  9  1  0
  9 10  1  0
 10 11  1  0
 11 12  1  0
 12 13  1  0
 13 14  2  0
 14 15  1  0
 15 16  2  0
 16 17  1  0
 17 18  2  0
 12 19  1  0
 19 20  1  0
  5 21  1  0
 21 22  1  0
 21 23  2  0
 23  2  1  0
 20  9  1  0
 18 13  1  0
M  END
$$$$
