
     RDKit          3D

 40 45  0  0  0  0  0  0  0  0999 V2000
   11.7461   98.0700   52.4755 C   0  0  0  0  0  0  0  0  0  0  0  0
   11.9899   99.1738   53.3707 N   0  0  0  0  0  0  0  0  0  0  0  0
   10.9974   99.6551   54.2821 C   0  0  0  0  0  0  0  0  0  0  0  0
   11.0731   98.9967   55.6044 C   0  0  0  0  0  0  0  0  0  0  0  0
   11.9423   97.9247   55.8313 C   0  0  0  0  0  0  0  0  0  0  0  0
   12.0505   97.2832   57.0323 C   0  0  0  0  0  0  0  0  0  0  0  0
   11.2761   97.6904   58.0940 C   0  0  0  0  0  0  0  0  0  0  0  0
   11.3709   97.0496   59.3252 O   0  0  0  0  0  0  0  0  0  0  0  0
   12.1285   95.8777   59.4291 C   0  0  0  0  0  0  0  0  0  0  0  0
   12.7928   95.9106   60.8154 C   0  0  0  0  0  0  0  0  0  0  0  0
   13.4417   94.5839   61.0045 C   0  0  0  0  0  0  0  0  0  0  0  0
   13.2350   93.9474   62.2483 N   0  0  0  0  0  0  0  0  0  0  0  0
   13.4290   94.7719   63.3879 C   0  0  0  0  0  0  0  0  0  0  0  0
   14.7605   94.5376   64.0718 C   0  0  0  0  0  0  0  0  0  0  0  0
   14.8070   93.0640   64.4288 C   0  0  0  0  0  0  0  0  0  0  0  0
   14.7900   92.2604   63.1714 C   0  0  0  0  0  0  0  0  0  0  0  0
   13.5449   92.5759   62.3764 C   0  0  0  0  0  0  0  0  0  0  0  0
   10.4055   98.7530   57.8927 C   0  0  0  0  0  0  0  0  0  0  0  0
   10.3136   99.3851   56.6716 C   0  0  0  0  0  0  0  0  0  0  0  0
   13.2749   99.8101   53.3125 C   0  0  0  0  0  0  0  0  0  0  0  0
   13.9476   99.9137   52.1611 N   0  0  0  0  0  0  0  0  0  0  0  0
   15.1655  100.5254   52.1106 C   0  0  0  0  0  0  0  0  0  0  0  0
   15.8408  100.5923   50.8670 N   0  0  0  0  0  0  0  0  0  0  0  0
   15.3599   99.9310   49.6719 C   0  0  0  0  0  0  0  0  0  0  0  0
   15.5567  100.5736   48.3452 C   0  0  0  0  0  0  0  0  0  0  0  0
   14.1855  100.6093   48.9861 C   0  0  0  0  0  0  0  0  0  0  0  0
   15.6424  101.0103   53.2684 N   0  0  0  0  0  0  0  0  0  0  0  0
   16.7728  101.6404   53.5353 N   0  0  0  0  0  0  0  0  0  0  0  0
   16.8538  101.9521   54.8482 C   0  0  0  0  0  0  0  0  0  0  0  0
   15.7116  101.4976   55.4644 C   0  0  0  0  0  0  0  0  0  0  0  0
   15.3361  101.5658   56.8666 C   0  0  0  0  0  0  0  0  0  0  0  0
   14.0714  101.5201   57.2840 C   0  0  0  0  0  0  0  0  0  0  0  0
   12.9329  101.5285   56.4319 N   0  0  0  0  0  0  0  0  0  0  0  0
   11.7321  101.4688   57.2195 C   0  0  0  0  0  0  0  0  0  0  0  0
   10.5435  101.4599   56.7663 O   0  0  0  0  0  0  0  0  0  0  0  0
   12.1221  101.4226   58.5853 N   0  0  0  0  0  0  0  0  0  0  0  0
   13.5425  101.4532   58.6453 C   0  0  0  0  0  0  0  0  0  0  0  0
   14.2545  101.4276   59.6920 O   0  0  0  0  0  0  0  0  0  0  0  0
   14.9788  100.9144   54.4377 C   0  0  0  0  0  0  0  0  0  0  0  0
   13.7857  100.3123   54.4735 N   0  0  0  0  0  0  0  0  0  0  0  0
  1  2  1  0
  2  3  1  0
  3  4  1  0
  4  5  2  0
  5  6  1  0
  6  7  2  0
  7  8  1  0
  8  9  1  0
  9 10  1  0
 10 11  1  0
 11 12  1  0
 12 13  1  0
 13 14  1  0
 14 15  1  0
 15 16  1  0
 16 17  1  0
  7 18  1  0
 18 19  2  0
  2 20  1  0
 20 21  1  0
 21 22  2  0
 22 23  1  0
 23 24  1  0
 24 25  1  0
 25 26  1  0
 22 27  1  0
 27 28  1  0
 28 29  2  0
 29 30  1  0
 30 31  1  0
 31 32  2  0
 32 33  1  0
 33 34  1  0
 34 35  2  0
 34 36  1  0
 36 37  1  0
 37 38  2  0
 30 39  2  0
 39 40  1  0
 19  4  1  0
 40 20  2  0
 17 12  1  0
 26 24  1  0
 39 27  1  0
 37 32  1  0
M  END
$$$$
