
     RDKit          3D

 19 21  0  0  0  0  0  0  0  0999 V2000
   17.3047  102.0849   53.5223 O   0  0  0  0  0  0  0  0  0  0  0  0
   16.0751  101.5002   53.7411 C   0  0  0  0  0  0  0  0  0  0  0  0
   15.5783  101.4205   55.0242 C   0  0  0  0  0  0  0  0  0  0  0  0
   14.3517  100.8326   55.2080 C   0  0  0  0  0  0  0  0  0  0  0  0
   13.5850  100.6598   56.8074 S   0  0  0  0  0  0  0  0  0  0  0  0
   11.9635   99.8658   56.7031 C   0  0  0  0  0  0  0  0  0  0  0  0
   11.8580   98.9185   57.8409 C   0  0  0  0  0  0  0  0  0  0  0  0
   12.3684   97.6330   57.7534 C   0  0  0  0  0  0  0  0  0  0  0  0
   12.2822   96.7413   58.7917 C   0  0  0  0  0  0  0  0  0  0  0  0
   11.6680   97.1456   59.9519 C   0  0  0  0  0  0  0  0  0  0  0  0
   11.1548   98.4033   60.0719 N   0  0  0  0  0  0  0  0  0  0  0  0
   11.2527   99.2719   59.0257 C   0  0  0  0  0  0  0  0  0  0  0  0
   13.6753  100.3562   54.1485 N   0  0  0  0  0  0  0  0  0  0  0  0
   14.1520  100.4294   52.8926 C   0  0  0  0  0  0  0  0  0  0  0  0
   13.4659   99.9447   51.8062 C   0  0  0  0  0  0  0  0  0  0  0  0
   13.9770  100.0328   50.5331 C   0  0  0  0  0  0  0  0  0  0  0  0
   15.2002  100.6123   50.2982 C   0  0  0  0  0  0  0  0  0  0  0  0
   15.9097  101.1063   51.3664 C   0  0  0  0  0  0  0  0  0  0  0  0
   15.3883  101.0127   52.6370 C   0  0  0  0  0  0  0  0  0  0  0  0
  1  2  1  0
  2  3  2  0
  3  4  1  0
  4  5  1  0
  5  6  1  0
  6  7  1  0
  7  8  2  0
  8  9  1  0
  9 10  2  0
 10 11  1  0
 11 12  2  0
  4 13  2  0
 13 14  1  0
 14 15  2  0
 15 16  1  0
 16 17  2  0
 17 18  1  0
 18 19  2  0
 19  2  1  0
 12  7  1  0
 19 14  1  0
M  END
$$$$
