
     RDKit          3D

 21 23  0  0  0  0  0  0  0  0999 V2000
   14.8021   51.7160   16.8703 Cl  0  0  0  0  0  0  0  0  0  0  0  0
   15.5360   52.6194   15.5629 C   0  0  0  0  0  0  0  0  0  0  0  0
   16.8700   52.9567   15.5584 C   0  0  0  0  0  0  0  0  0  0  0  0
   17.4062   53.6735   14.5000 C   0  0  0  0  0  0  0  0  0  0  0  0
   16.6429   54.0753   13.4213 C   0  0  0  0  0  0  0  0  0  0  0  0
   17.2062   54.8136   12.3362 N   0  0  0  0  0  0  0  0  0  0  0  0
   18.3110   54.5544   11.6522 N   0  0  0  0  0  0  0  0  0  0  0  0
   18.4981   55.4654   10.7285 N   0  0  0  0  0  0  0  0  0  0  0  0
   17.4841   56.3188   10.8356 N   0  0  0  0  0  0  0  0  0  0  0  0
   16.6565   55.9512   11.8232 C   0  0  0  0  0  0  0  0  0  0  0  0
   15.4297   56.5604   12.3108 C   0  0  0  0  0  0  0  0  0  0  0  0
   15.2969   57.8650   12.2208 C   0  0  0  0  0  0  0  0  0  0  0  0
   14.0461   58.5515   12.1797 N   0  0  0  0  0  0  0  0  0  0  0  0
   14.0767   59.9800   11.9780 C   0  0  0  0  0  0  0  0  0  0  0  0
   12.6970   60.5216   12.2811 C   0  0  0  0  0  0  0  0  0  0  0  0
   11.7865   59.7684   11.5254 O   0  0  0  0  0  0  0  0  0  0  0  0
   11.5948   58.5793   12.2251 C   0  0  0  0  0  0  0  0  0  0  0  0
   12.8580   57.7725   12.3373 C   0  0  0  0  0  0  0  0  0  0  0  0
   15.3060   53.7315   13.4363 C   0  0  0  0  0  0  0  0  0  0  0  0
   14.7592   53.0092   14.4998 C   0  0  0  0  0  0  0  0  0  0  0  0
   13.0647   52.5873   14.4937 Cl  0  0  0  0  0  0  0  0  0  0  0  0
  1  2  1  0
  2  3  2  0
  3  4  1  0
  4  5  2  0
  5  6  1  0
  6  7  1  0
  7  8  2  0
  8  9  1  0
  9 10  2  0
 10 11  1  0
 11 12  2  3
 12 13  1  0
 13 14  1  0
 14 15  1  0
 15 16  1  0
 16 17  1  0
 17 18  1  0
  5 19  1  0
 19 20  2  0
 20 21  1  0
 20  2  1  0
 10  6  1  0
 18 13  1  0
M  END
$$$$
