
     RDKit          3D

 35 39  0  0  0  0  0  0  0  0999 V2000
   11.1174   64.4472   10.8971 C   0  0  0  0  0  0  0  0  0  0  0  0
   11.4368   63.2564   11.7454 C   0  0  0  0  0  0  0  0  0  0  0  0
   12.4675   63.2175   12.4740 O   0  0  0  0  0  0  0  0  0  0  0  0
   10.5576   62.1342   11.7351 N   0  0  0  0  0  0  0  0  0  0  0  0
   10.9395   60.8754   12.3483 C   0  0  1  0  0  0  0  0  0  0  0  0
    9.9431   59.7825   12.1529 C   0  0  0  0  0  0  0  0  0  0  0  0
   12.3051   60.5079   11.8528 C   0  0  0  0  0  0  0  0  0  0  0  0
   12.8086   59.3835   12.3500 O   0  0  0  0  0  0  0  0  0  0  0  0
   13.9968   58.8403   12.1534 C   0  0  1  0  0  0  0  0  0  0  0  0
   15.0711   59.6120   12.9388 C   0  0  0  0  0  0  0  0  0  0  0  0
   16.2651   58.7386   13.2198 C   0  0  0  0  0  0  0  0  0  0  0  0
   15.8859   57.6278   14.2111 C   0  0  2  0  0  0  0  0  0  0  0  0
   16.3381   56.4381   13.9412 O   0  0  0  0  0  0  0  0  0  0  0  0
   16.6764   55.3034   13.4352 C   0  0  0  0  0  0  0  0  0  0  0  0
   17.1355   55.2415   12.1419 N   0  0  0  0  0  0  0  0  0  0  0  0
   17.5028   54.1131   11.5516 C   0  0  0  0  0  0  0  0  0  0  0  0
   17.4347   52.9192   12.2385 C   0  0  0  0  0  0  0  0  0  0  0  0
   16.9869   52.8839   13.5388 C   0  0  0  0  0  0  0  0  0  0  0  0
   16.9257   51.6842   14.2088 C   0  0  0  0  0  0  0  0  0  0  0  0
   16.4660   51.6681   15.5361 C   0  0  0  0  0  0  0  0  0  0  0  0
   16.3916   50.4525   16.2126 N   0  0  0  0  0  0  0  0  0  0  0  0
   17.3192   49.3847   16.0213 C   0  0  0  0  0  0  0  0  0  0  0  0
   17.8634   48.8887   17.3688 C   0  0  0  0  0  0  0  0  0  0  0  0
   16.7324   48.4235   18.1298 N   0  0  0  0  0  0  0  0  0  0  0  0
   16.6603   47.3924   18.9759 N   0  0  0  0  0  0  0  0  0  0  0  0
   15.4138   47.3110   19.4723 C   0  0  0  0  0  0  0  0  0  0  0  0
   14.9001   46.2954   20.4604 C   0  0  0  0  0  0  0  0  0  0  0  0
   14.7082   48.3425   18.8955 C   0  0  0  0  0  0  0  0  0  0  0  0
   15.5628   49.0491   18.0368 C   0  0  0  0  0  0  0  0  0  0  0  0
   15.3283   50.2426   17.1707 C   0  0  0  0  0  0  0  0  0  0  0  0
   16.0972   52.8331   16.1166 C   0  0  0  0  0  0  0  0  0  0  0  0
   16.1731   54.0187   15.4107 C   0  0  0  0  0  0  0  0  0  0  0  0
   16.6175   54.0879   14.1054 C   0  0  0  0  0  0  0  0  0  0  0  0
   14.3351   57.5840   14.2189 C   0  0  0  0  0  0  0  0  0  0  0  0
   13.9254   57.4039   12.7784 C   0  0  0  0  0  0  0  0  0  0  0  0
  1  2  1  0
  2  3  2  0
  2  4  1  0
  4  5  1  0
  5  6  1  6
  5  7  1  0
  7  8  1  0
  9  8  1  1
  9 10  1  0
 10 11  1  0
 11 12  1  0
 12 13  1  6
 13 14  1  0
 14 15  2  0
 15 16  1  0
 16 17  2  0
 17 18  1  0
 18 19  2  0
 19 20  1  0
 20 21  1  0
 21 22  1  0
 22 23  1  0
 23 24  1  0
 24 25  1  0
 25 26  2  0
 26 27  1  0
 26 28  1  0
 28 29  2  0
 29 30  1  0
 20 31  2  0
 31 32  1  0
 32 33  2  0
 12 34  1  0
 34 35  1  0
 35  9  1  0
 33 14  1  0
 33 18  1  0
 30 21  1  0
 29 24  1  0
M  END
$$$$
