
     RDKit          3D

 23 25  0  0  0  0  0  0  0  0999 V2000
   16.3386   49.0356   21.1718 C   0  0  0  0  0  0  0  0  0  0  0  0
   16.5023   47.7641   20.3758 C   0  0  0  0  0  0  0  0  0  0  0  0
   16.7219   46.5571   21.2642 C   0  0  0  0  0  0  0  0  0  0  0  0
   15.3842   47.5562   19.4015 C   0  0  0  0  0  0  0  0  0  0  0  0
   15.2686   48.7405   18.4754 C   0  0  0  0  0  0  0  0  0  0  0  0
   14.0675   49.4186   18.3917 N   0  0  0  0  0  0  0  0  0  0  0  0
   14.4838   50.7287   17.1302 S   0  0  0  0  0  0  0  0  0  0  0  0
   16.1205   50.1701   16.9374 C   0  0  0  0  0  0  0  0  0  0  0  0
   17.0561   50.7709   16.0432 N   0  0  0  0  0  0  0  0  0  0  0  0
   16.6841   51.8171   15.1629 C   0  0  0  0  0  0  0  0  0  0  0  0
   17.6081   52.1699   14.2298 N   0  0  0  0  0  0  0  0  0  0  0  0
   17.3732   53.1467   13.3589 C   0  0  0  0  0  0  0  0  0  0  0  0
   16.1696   53.8172   13.4013 C   0  0  0  0  0  0  0  0  0  0  0  0
   15.8807   54.8663   12.4712 N   0  0  0  0  0  0  0  0  0  0  0  0
   16.4562   54.9531   11.1513 C   0  0  0  0  0  0  0  0  0  0  0  0
   16.9786   56.3478   10.9293 C   0  0  0  0  0  0  0  0  0  0  0  0
   15.9695   57.2729   11.1718 O   0  0  0  0  0  0  0  0  0  0  0  0
   15.6249   57.2563   12.5165 C   0  0  1  0  0  0  0  0  0  0  0  0
   14.6230   58.3571   12.7736 C   0  0  0  0  0  0  0  0  0  0  0  0
   14.9620   55.9329   12.8691 C   0  0  0  0  0  0  0  0  0  0  0  0
   15.2385   53.4572   14.3461 C   0  0  0  0  0  0  0  0  0  0  0  0
   15.5127   52.4487   15.2252 N   0  0  0  0  0  0  0  0  0  0  0  0
   16.2234   49.1626   17.7382 N   0  0  0  0  0  0  0  0  0  0  0  0
  1  2  1  0
  2  3  1  0
  2  4  1  0
  4  5  1  0
  5  6  2  0
  6  7  1  0
  7  8  1  0
  8  9  1  0
  9 10  1  0
 10 11  2  0
 11 12  1  0
 12 13  2  0
 13 14  1  0
 14 15  1  0
 15 16  1  0
 16 17  1  0
 17 18  1  0
 18 19  1  6
 18 20  1  0
 13 21  1  0
 21 22  2  0
  8 23  2  0
 23  5  1  0
 22 10  1  0
 20 14  1  0
M  END
$$$$
