
     RDKit          3D

 19 20  0  0  0  0  0  0  0  0999 V2000
   39.6254   80.0443   53.4397 C   0  0  0  0  0  0  0  0  0  0  0  0
   38.2260   80.5009   53.1342 C   0  0  0  0  0  0  0  0  0  0  0  0
   37.1732   80.2263   53.9949 C   0  0  0  0  0  0  0  0  0  0  0  0
   36.0582   80.7853   53.4070 C   0  0  0  0  0  0  0  0  0  0  0  0
   36.4933   81.3624   52.2333 C   0  0  0  0  0  0  0  0  0  0  0  0
   35.6887   82.0949   51.2283 C   0  0  0  0  0  0  0  0  0  0  0  0
   35.9470   81.6533   49.8261 C   0  0  0  0  0  0  0  0  0  0  0  0
   34.2671   81.8121   51.5262 N   0  0  0  0  0  0  0  0  0  0  0  0
   33.2572   82.7165   51.1765 C   0  0  0  0  0  0  0  0  0  0  0  0
   33.6156   83.7137   50.4498 O   0  0  0  0  0  0  0  0  0  0  0  0
   31.8693   82.5733   51.5907 C   0  0  0  0  0  0  0  0  0  0  0  0
   31.3798   82.8612   52.8160 C   0  0  0  0  0  0  0  0  0  0  0  0
   32.1818   83.3247   53.7904 F   0  0  0  0  0  0  0  0  0  0  0  0
   30.0179   82.6726   53.0691 C   0  0  0  0  0  0  0  0  0  0  0  0
   29.1509   82.2023   52.1139 C   0  0  0  0  0  0  0  0  0  0  0  0
   29.6559   81.9067   50.8544 C   0  0  0  0  0  0  0  0  0  0  0  0
   30.9858   82.0912   50.6081 C   0  0  0  0  0  0  0  0  0  0  0  0
   31.5890   81.7039   48.9949 Cl  0  0  0  0  0  0  0  0  0  0  0  0
   37.7845   81.1699   52.1116 O   0  0  0  0  0  0  0  0  0  0  0  0
  1  2  1  0
  2  3  2  0
  3  4  1  0
  4  5  2  0
  5  6  1  0
  6  7  1  0
  6  8  1  0
  8  9  1  0
  9 10  2  0
  9 11  1  0
 11 12  2  0
 12 13  1  0
 12 14  1  0
 14 15  2  0
 15 16  1  0
 16 17  2  0
 17 18  1  0
  5 19  1  0
 19  2  1  0
 17 11  1  0
M  END
$$$$
