
     RDKit          3D

 22 23  0  0  0  0  0  0  0  0999 V2000
   -6.5044   68.0748   29.3559 C   0  0  0  0  0  0  0  0  0  0  0  0
   -5.1989   67.3196   29.4308 C   0  0  0  0  0  0  0  0  0  0  0  0
   -5.1500   66.5280   30.7171 C   0  0  0  0  0  0  0  0  0  0  0  0
   -4.9634   67.4816   31.7480 O   0  0  0  0  0  0  0  0  0  0  0  0
   -6.4094   65.7390   30.8694 C   0  0  0  0  0  0  0  0  0  0  0  0
   -6.1772   64.5163   31.7742 C   0  0  0  0  0  0  0  0  0  0  0  0
   -5.1976   63.6237   31.2119 N   0  0  0  0  0  0  0  0  0  0  0  0
   -5.1121   62.2504   31.4615 C   0  0  0  0  0  0  0  0  0  0  0  0
   -6.1029   61.6680   32.0237 O   0  0  0  0  0  0  0  0  0  0  0  0
   -3.9679   61.4005   31.1305 C   0  0  0  0  0  0  0  0  0  0  0  0
   -2.6780   61.6631   31.5358 C   0  0  0  0  0  0  0  0  0  0  0  0
   -1.6219   60.8185   31.1912 C   0  0  0  0  0  0  0  0  0  0  0  0
   -1.8239   59.6881   30.4328 C   0  0  0  0  0  0  0  0  0  0  0  0
   -0.6745   58.7955   30.0694 C   0  0  0  0  0  0  0  0  0  0  0  0
    0.4688   59.4999   29.8574 F   0  0  0  0  0  0  0  0  0  0  0  0
   -0.5751   57.7995   30.9998 F   0  0  0  0  0  0  0  0  0  0  0  0
   -1.0078   58.1681   28.8611 F   0  0  0  0  0  0  0  0  0  0  0  0
   -3.1088   59.4139   30.0213 C   0  0  0  0  0  0  0  0  0  0  0  0
   -4.1477   60.2524   30.3651 C   0  0  0  0  0  0  0  0  0  0  0  0
   -4.2349   64.2632   30.3076 C   0  0  0  0  0  0  0  0  0  0  0  0
   -3.9078   65.6650   30.7550 C   0  0  0  0  0  0  0  0  0  0  0  0
   -3.2664   65.6600   31.9691 O   0  0  0  0  0  0  0  0  0  0  0  0
  1  2  1  0
  2  3  1  0
  3  4  1  0
  3  5  1  0
  5  6  1  0
  6  7  1  0
  7  8  1  0
  8  9  2  0
  8 10  1  0
 10 11  2  0
 11 12  1  0
 12 13  2  0
 13 14  1  0
 14 15  1  0
 14 16  1  0
 14 17  1  0
 13 18  1  0
 18 19  2  0
  7 20  1  0
 20 21  1  0
 21 22  1  0
 21  3  1  0
 19 10  1  0
M  END
$$$$
