
     RDKit          3D

 22 24  0  0  0  0  0  0  0  0999 V2000
   10.7449   99.2290   62.6499 N   0  0  0  0  0  0  0  0  0  0  0  0
   10.9351   98.4588   61.8261 C   0  0  0  0  0  0  0  0  0  0  0  0
   11.1555   97.4596   60.7611 C   0  0  0  0  0  0  0  0  0  0  0  0
   12.2105   96.5287   61.2128 C   0  0  0  0  0  0  0  0  0  0  0  0
   13.4265   96.7989   61.0585 O   0  0  0  0  0  0  0  0  0  0  0  0
   11.8892   95.2933   61.8384 N   0  0  0  0  0  0  0  0  0  0  0  0
   12.8680   94.5025   62.4846 C   0  0  0  0  0  0  0  0  0  0  0  0
   12.5307   93.7455   63.5950 C   0  0  0  0  0  0  0  0  0  0  0  0
   13.4484   92.9751   64.2382 C   0  0  0  0  0  0  0  0  0  0  0  0
   14.7469   92.9693   63.7446 C   0  0  0  0  0  0  0  0  0  0  0  0
   15.6395   92.1885   64.4109 F   0  0  0  0  0  0  0  0  0  0  0  0
   15.0941   93.7192   62.6394 C   0  0  0  0  0  0  0  0  0  0  0  0
   14.1581   94.4966   61.9942 C   0  0  0  0  0  0  0  0  0  0  0  0
   11.5621   98.1926   59.5352 C   0  0  0  0  0  0  0  0  0  0  0  0
   12.7182   98.8443   59.3708 N   0  0  0  0  0  0  0  0  0  0  0  0
   12.7411   99.3864   58.1406 C   0  0  0  0  0  0  0  0  0  0  0  0
   13.6748  100.1525   57.4519 C   0  0  0  0  0  0  0  0  0  0  0  0
   13.4039  100.5708   56.1666 C   0  0  0  0  0  0  0  0  0  0  0  0
   12.2187  100.2418   55.5486 C   0  0  0  0  0  0  0  0  0  0  0  0
   11.2993   99.4841   56.2344 C   0  0  0  0  0  0  0  0  0  0  0  0
   11.5566   99.0576   57.5231 C   0  0  0  0  0  0  0  0  0  0  0  0
   10.8581   98.3263   58.4049 N   0  0  0  0  0  0  0  0  0  0  0  0
  1  2  3  0
  2  3  1  0
  3  4  1  0
  4  5  2  0
  4  6  1  0
  6  7  1  0
  7  8  2  0
  8  9  1  0
  9 10  2  0
 10 11  1  0
 10 12  1  0
 12 13  2  0
  3 14  1  0
 14 15  2  0
 15 16  1  0
 16 17  2  0
 17 18  1  0
 18 19  2  0
 19 20  1  0
 20 21  2  0
 21 22  1  0
 13  7  1  0
 22 14  1  0
 21 16  1  0
M  END
$$$$
