
     RDKit          3D

 34 37  0  0  0  0  0  0  0  0999 V2000
   43.7992   81.7989   56.9749 C   0  0  0  0  0  0  0  0  0  0  0  0
   42.9254   82.8987   57.5427 C   0  0  0  0  0  0  0  0  0  0  0  0
   41.4793   82.6927   57.1330 C   0  0  0  0  0  0  0  0  0  0  0  0
   41.2875   82.1178   55.7802 C   0  0  0  0  0  0  0  0  0  0  0  0
   39.9403   82.1507   55.1736 C   0  0  0  0  0  0  0  0  0  0  0  0
   39.9245   82.5470   53.7605 N   0  0  0  0  0  0  0  0  0  0  0  0
   38.8079   82.3678   53.0332 C   0  0  0  0  0  0  0  0  0  0  0  0
   38.6407   82.6556   51.7079 C   0  0  0  0  0  0  0  0  0  0  0  0
   39.7890   83.1944   51.1108 C   0  0  0  0  0  0  0  0  0  0  0  0
   39.7887   83.5131   49.9055 O   0  0  0  0  0  0  0  0  0  0  0  0
   40.9321   83.3931   51.8015 N   0  0  0  0  0  0  0  0  0  0  0  0
   40.9733   83.0631   53.1117 C   0  0  0  0  0  0  0  0  0  0  0  0
   42.0559   83.2568   53.7316 O   0  0  0  0  0  0  0  0  0  0  0  0
   37.4635   82.4369   50.8668 C   0  0  0  0  0  0  0  0  0  0  0  0
   37.7518   81.2060   50.0503 C   0  0  0  0  0  0  0  0  0  0  0  0
   37.6821   81.3268   48.6813 C   0  0  0  0  0  0  0  0  0  0  0  0
   37.9069   80.2439   47.8636 C   0  0  0  0  0  0  0  0  0  0  0  0
   38.2108   79.0023   48.4124 C   0  0  0  0  0  0  0  0  0  0  0  0
   38.2851   78.8673   49.7759 C   0  0  0  0  0  0  0  0  0  0  0  0
   38.0532   79.9777   50.5744 C   0  0  0  0  0  0  0  0  0  0  0  0
   38.1591   79.7821   51.8909 F   0  0  0  0  0  0  0  0  0  0  0  0
   36.1982   82.3304   51.5148 N   0  0  0  0  0  0  0  0  0  0  0  0
   35.0156   82.0793   50.7802 C   0  0  0  0  0  0  0  0  0  0  0  0
   35.1587   81.5789   49.6056 O   0  0  0  0  0  0  0  0  0  0  0  0
   33.6430   82.3086   51.1691 C   0  0  0  0  0  0  0  0  0  0  0  0
   33.1831   82.0343   52.4343 C   0  0  0  0  0  0  0  0  0  0  0  0
   31.8497   82.2419   52.7654 C   0  0  0  0  0  0  0  0  0  0  0  0
   31.3057   81.8766   54.3935 Cl  0  0  0  0  0  0  0  0  0  0  0  0
   30.9281   82.7312   51.8428 C   0  0  0  0  0  0  0  0  0  0  0  0
   31.3854   83.0040   50.5820 C   0  0  0  0  0  0  0  0  0  0  0  0
   30.2812   83.6126   49.3430 Cl  0  0  0  0  0  0  0  0  0  0  0  0
   32.7000   82.7991   50.2567 C   0  0  0  0  0  0  0  0  0  0  0  0
   35.9686   82.4902   52.9580 C   0  0  0  0  0  0  0  0  0  0  0  0
   37.3550   81.7765   53.9207 S   0  0  0  0  0  0  0  0  0  0  0  0
  1  2  1  0
  2  3  1  0
  3  4  1  0
  4  5  1  0
  5  6  1  0
  6  7  1  0
  7  8  2  0
  8  9  1  0
  9 10  2  0
  9 11  1  0
 11 12  1  0
 12 13  2  0
  8 14  1  0
 14 15  1  0
 15 16  2  0
 16 17  1  0
 17 18  2  0
 18 19  1  0
 19 20  2  0
 20 21  1  0
 14 22  1  0
 22 23  1  0
 23 24  2  0
 23 25  1  0
 25 26  2  0
 26 27  1  0
 27 28  1  0
 27 29  2  0
 29 30  1  0
 30 31  1  0
 30 32  2  0
 22 33  1  0
 33 34  1  0
 12  6  1  0
 20 15  1  0
 32 25  1  0
 34  7  1  0
M  END
$$$$
