
     RDKit          3D

 25 26  0  0  0  0  0  0  0  0999 V2000
   13.2093   59.5065    9.5928 C   0  0  0  0  0  0  0  0  0  0  0  0
   13.0227   59.5287   10.9613 O   0  0  0  0  0  0  0  0  0  0  0  0
   13.8248   58.8610   11.8504 C   0  0  0  0  0  0  0  0  0  0  0  0
   13.5320   58.9820   13.2184 C   0  0  0  0  0  0  0  0  0  0  0  0
   14.3074   58.3319   14.1328 C   0  0  0  0  0  0  0  0  0  0  0  0
   15.3959   57.5399   13.7640 C   0  0  0  0  0  0  0  0  0  0  0  0
   15.6834   57.4220   12.4228 C   0  0  0  0  0  0  0  0  0  0  0  0
   17.0632   56.3945   11.9538 S   0  0  0  0  0  0  0  0  0  0  0  0
   17.3832   55.2814   13.3378 C   0  0  0  0  0  0  0  0  0  0  0  0
   16.3586   54.3516   13.6963 C   0  0  0  0  0  0  0  0  0  0  0  0
   15.2380   54.4772   14.0292 O   0  0  0  0  0  0  0  0  0  0  0  0
   16.8947   52.6946   13.6254 N   0  0  0  0  0  0  0  0  0  0  0  0
   16.3286   52.3235   14.7692 C   0  0  0  0  0  0  0  0  0  0  0  0
   15.2395   52.2135   15.2943 O   0  0  0  0  0  0  0  0  0  0  0  0
   17.4356   51.8924   15.7695 N   0  0  0  0  0  0  0  0  0  0  0  0
   17.0229   50.9947   16.7364 C   0  0  0  0  0  0  0  0  0  0  0  0
   17.4844   50.2399   17.6339 N   0  0  0  0  0  0  0  0  0  0  0  0
   16.7622   49.4860   18.3421 N   0  0  0  0  0  0  0  0  0  0  0  0
   15.5482   49.3505   18.2982 C   0  0  0  0  0  0  0  0  0  0  0  0
   14.3689   48.6632   18.8300 C   0  0  0  0  0  0  0  0  0  0  0  0
   13.1607   49.0472   18.0585 C   0  0  0  0  0  0  0  0  0  0  0  0
   14.6041   47.1727   18.6230 C   0  0  0  0  0  0  0  0  0  0  0  0
   14.1659   48.9109   20.3076 C   0  0  0  0  0  0  0  0  0  0  0  0
   15.1922   50.5634   16.9214 S   0  0  0  0  0  0  0  0  0  0  0  0
   14.9087   58.0726   11.4920 C   0  0  0  0  0  0  0  0  0  0  0  0
  1  2  1  0
  2  3  1  0
  3  4  2  0
  4  5  1  0
  5  6  2  0
  6  7  1  0
  7  8  1  0
  8  9  1  0
  9 10  1  0
 10 11  2  0
 10 12  1  0
 12 13  1  0
 13 14  2  0
 13 15  1  0
 15 16  1  0
 16 17  2  0
 17 18  1  0
 18 19  2  0
 19 20  1  0
 20 21  1  0
 20 22  1  0
 20 23  1  0
 19 24  1  0
  7 25  2  0
 25  3  1  0
 24 16  1  0
M  END
$$$$
