
     RDKit          3D

 20 21  0  0  0  0  0  0  0  0999 V2000
   13.0756   48.5649   17.7811 C   0  0  0  0  0  0  0  0  0  0  0  0
   14.3486   49.2706   18.2373 C   0  0  0  0  0  0  0  0  0  0  0  0
   14.5062   49.1638   19.7139 C   0  0  0  0  0  0  0  0  0  0  0  0
   14.8584   47.7251   20.0295 C   0  0  0  0  0  0  0  0  0  0  0  0
   16.2265   47.4900   19.4599 C   0  0  0  0  0  0  0  0  0  0  0  0
   16.3867   47.7816   18.0189 C   0  0  0  0  0  0  0  0  0  0  0  0
   15.5416   48.8427   17.4310 C   0  0  0  0  0  0  0  0  0  0  0  0
   16.2928   50.0617   17.0766 N   0  0  0  0  0  0  0  0  0  0  0  0
   15.7508   51.0320   16.1981 C   0  0  0  0  0  0  0  0  0  0  0  0
   14.4793   51.1305   16.2030 O   0  0  0  0  0  0  0  0  0  0  0  0
   16.5088   51.9157   15.3052 C   0  0  0  0  0  0  0  0  0  0  0  0
   16.0038   52.0509   13.9898 N   0  0  0  0  0  0  0  0  0  0  0  0
   14.8122   52.8060   13.8199 C   0  0  0  0  0  0  0  0  0  0  0  0
   15.0607   54.2775   13.5656 C   0  0  0  0  0  0  0  0  0  0  0  0
   16.3801   54.5192   12.8745 C   0  0  0  0  0  0  0  0  0  0  0  0
   16.4015   55.7153   12.0176 C   0  0  0  0  0  0  0  0  0  0  0  0
   15.3035   56.6178   11.9448 N   0  0  0  0  0  0  0  0  0  0  0  0
   17.4290   55.9502   11.3232 O   0  0  0  0  0  0  0  0  0  0  0  0
   16.6509   53.2800   12.0404 C   0  0  0  0  0  0  0  0  0  0  0  0
   17.0336   52.2029   13.0363 C   0  0  0  0  0  0  0  0  0  0  0  0
  1  2  1  0
  2  3  1  0
  3  4  1  0
  4  5  1  0
  5  6  1  0
  6  7  1  0
  7  8  1  0
  8  9  1  0
  9 10  2  0
  9 11  1  0
 11 12  1  0
 12 13  1  0
 13 14  1  0
 14 15  1  0
 15 16  1  0
 16 17  1  0
 16 18  2  0
 15 19  1  0
 19 20  1  0
  7  2  1  0
 20 12  1  0
M  END
$$$$
