
     RDKit          3D

 22 24  0  0  0  0  0  0  0  0999 V2000
   15.3705   92.7691   63.5502 C   0  0  0  0  0  0  0  0  0  0  0  0
   14.1977   93.1007   64.2759 O   0  0  0  0  0  0  0  0  0  0  0  0
   13.1150   93.6044   63.5691 C   0  0  0  0  0  0  0  0  0  0  0  0
   11.8104   93.1657   63.7925 C   0  0  0  0  0  0  0  0  0  0  0  0
   10.7500   93.6800   63.0787 C   0  0  0  0  0  0  0  0  0  0  0  0
   10.9488   94.6376   62.1287 C   0  0  0  0  0  0  0  0  0  0  0  0
   12.2485   95.0988   61.8812 C   0  0  0  0  0  0  0  0  0  0  0  0
   12.4795   96.1204   60.8709 C   0  0  0  0  0  0  0  0  0  0  0  0
   13.5329   96.2157   60.0491 N   0  0  0  0  0  0  0  0  0  0  0  0
   13.3845   97.2861   59.2659 N   0  0  0  0  0  0  0  0  0  0  0  0
   12.2528   97.9052   59.5504 N   0  0  0  0  0  0  0  0  0  0  0  0
   11.7109   99.0852   58.9537 C   0  0  0  0  0  0  0  0  0  0  0  0
   11.0061   99.9800   59.7441 C   0  0  0  0  0  0  0  0  0  0  0  0
   10.4561  101.1393   59.2325 C   0  0  0  0  0  0  0  0  0  0  0  0
   10.6257  101.3965   57.8857 C   0  0  0  0  0  0  0  0  0  0  0  0
   11.3256  100.5268   57.0549 C   0  0  0  0  0  0  0  0  0  0  0  0
   11.4837  100.8241   55.6590 C   0  0  0  0  0  0  0  0  0  0  0  0
   11.6303  101.0566   54.5180 N   0  0  0  0  0  0  0  0  0  0  0  0
   11.8548   99.3827   57.6170 C   0  0  0  0  0  0  0  0  0  0  0  0
   11.6721   97.1862   60.5562 C   0  0  0  0  0  0  0  0  0  0  0  0
   10.4439   97.4886   61.1713 N   0  0  0  0  0  0  0  0  0  0  0  0
   13.2949   94.5654   62.6123 C   0  0  0  0  0  0  0  0  0  0  0  0
  1  2  1  0
  2  3  1  0
  3  4  2  0
  4  5  1  0
  5  6  2  0
  6  7  1  0
  7  8  1  0
  8  9  1  0
  9 10  2  0
 10 11  1  0
 11 12  1  0
 12 13  2  0
 13 14  1  0
 14 15  2  0
 15 16  1  0
 16 17  1  0
 17 18  3  0
 16 19  2  0
 11 20  1  0
 20 21  1  0
  7 22  2  0
 22  3  1  0
 20  8  2  0
 19 12  1  0
M  END
$$$$
