
     RDKit          3D

 21 23  0  0  0  0  0  0  0  0999 V2000
   30.8850   82.9004   54.6273 C   0  0  0  0  0  0  0  0  0  0  0  0
   30.0520   82.5387   53.5472 O   0  0  0  0  0  0  0  0  0  0  0  0
   30.6073   82.4208   52.2833 C   0  0  0  0  0  0  0  0  0  0  0  0
   31.9718   82.5250   52.0865 C   0  0  0  0  0  0  0  0  0  0  0  0
   32.4943   82.4051   50.8311 C   0  0  0  0  0  0  0  0  0  0  0  0
   31.6483   82.1758   49.7376 C   0  0  0  0  0  0  0  0  0  0  0  0
   30.3015   82.0701   49.9112 C   0  0  0  0  0  0  0  0  0  0  0  0
   29.7829   82.1925   51.1826 C   0  0  0  0  0  0  0  0  0  0  0  0
   28.0470   82.0520   51.3752 Cl  0  0  0  0  0  0  0  0  0  0  0  0
   32.2871   82.0566   48.4001 C   0  0  0  0  0  0  0  0  0  0  0  0
   33.5752   81.2804   48.4489 C   0  0  0  0  0  0  0  0  0  0  0  0
   34.2548   81.3297   49.7028 N   0  0  0  0  0  0  0  0  0  0  0  0
   33.9350   82.4982   50.5028 C   0  0  0  0  0  0  0  0  0  0  0  0
   34.8176   82.5035   51.7182 C   0  0  0  0  0  0  0  0  0  0  0  0
   36.1558   82.3842   51.2712 O   0  0  0  0  0  0  0  0  0  0  0  0
   37.1003   81.6116   51.8893 C   0  0  0  0  0  0  0  0  0  0  0  0
   36.8240   80.9588   53.0695 C   0  0  0  0  0  0  0  0  0  0  0  0
   37.7800   80.1805   53.6894 C   0  0  0  0  0  0  0  0  0  0  0  0
   39.0099   80.0638   53.1166 C   0  0  0  0  0  0  0  0  0  0  0  0
   39.3136   80.7059   51.9362 C   0  0  0  0  0  0  0  0  0  0  0  0
   38.3431   81.4707   51.3463 C   0  0  0  0  0  0  0  0  0  0  0  0
  1  2  1  0
  2  3  1  0
  3  4  2  0
  4  5  1  0
  5  6  2  0
  6  7  1  0
  7  8  2  0
  8  9  1  0
  6 10  1  0
 10 11  1  0
 11 12  1  0
 12 13  1  0
 13 14  1  0
 14 15  1  0
 15 16  1  0
 16 17  2  0
 17 18  1  0
 18 19  2  0
 19 20  1  0
 20 21  2  0
  8  3  1  0
 21 16  1  0
 13  5  1  0
M  END
$$$$
