
     RDKit          3D

 24 25  0  0  0  0  0  0  0  0999 V2000
   -3.1013   64.2409   30.8725 O   0  0  0  0  0  0  0  0  0  0  0  0
   -4.3438   64.1652   30.8436 C   0  0  0  0  0  0  0  0  0  0  0  0
   -5.0748   62.8980   30.8867 C   0  0  0  0  0  0  0  0  0  0  0  0
   -4.2897   61.6856   30.6720 C   0  0  0  0  0  0  0  0  0  0  0  0
   -4.7255   60.3950   30.6099 C   0  0  0  0  0  0  0  0  0  0  0  0
   -3.8363   59.3367   30.3763 C   0  0  0  0  0  0  0  0  0  0  0  0
   -2.5106   59.5493   30.2016 C   0  0  0  0  0  0  0  0  0  0  0  0
   -1.5165   58.4868   29.9403 C   0  0  0  0  0  0  0  0  0  0  0  0
   -1.9792   57.2555   30.3599 F   0  0  0  0  0  0  0  0  0  0  0  0
   -0.3704   58.7647   30.6849 F   0  0  0  0  0  0  0  0  0  0  0  0
   -1.1107   58.4446   28.6266 F   0  0  0  0  0  0  0  0  0  0  0  0
   -2.0348   60.8612   30.2603 C   0  0  0  0  0  0  0  0  0  0  0  0
   -2.9146   61.8649   30.4876 C   0  0  0  0  0  0  0  0  0  0  0  0
   -5.0803   65.3707   30.7643 N   0  0  0  0  0  0  0  0  0  0  0  0
   -4.5760   66.4793   29.9959 C   0  0  0  0  0  0  0  0  0  0  0  0
   -3.7714   67.2712   30.9377 C   0  0  0  0  0  0  0  0  0  0  0  0
   -3.1255   67.9314   31.6948 C   0  0  0  0  0  0  0  0  0  0  0  0
   -2.3325   68.7429   32.5934 C   0  0  0  0  0  0  0  0  0  0  0  0
   -0.9586   68.6459   32.6439 C   0  0  0  0  0  0  0  0  0  0  0  0
   -0.2124   69.4382   33.5166 C   0  0  0  0  0  0  0  0  0  0  0  0
   -0.8562   70.3159   34.3250 C   0  0  0  0  0  0  0  0  0  0  0  0
   -2.2263   70.4000   34.2624 C   0  0  0  0  0  0  0  0  0  0  0  0
   -2.9787   69.6293   33.4108 C   0  0  0  0  0  0  0  0  0  0  0  0
   -4.3293   69.7060   33.3425 F   0  0  0  0  0  0  0  0  0  0  0  0
  1  2  2  0
  2  3  1  0
  3  4  1  0
  4  5  2  0
  5  6  1  0
  6  7  2  0
  7  8  1  0
  8  9  1  0
  8 10  1  0
  8 11  1  0
  7 12  1  0
 12 13  2  0
  2 14  1  0
 14 15  1  0
 15 16  1  0
 16 17  3  0
 17 18  1  0
 18 19  2  0
 19 20  1  0
 20 21  2  0
 21 22  1  0
 22 23  2  0
 23 24  1  0
 13  4  1  0
 23 18  1  0
M  END
$$$$
