
     RDKit          3D

 34 39  0  0  0  0  0  0  0  0999 V2000
   32.8556   82.6301   47.7576 C   0  0  0  0  0  0  0  0  0  0  0  0
   34.0376   82.3189   48.6375 C   0  0  0  0  0  0  0  0  0  0  0  0
   35.1738   81.7935   48.1329 N   0  0  0  0  0  0  0  0  0  0  0  0
   35.9995   81.6489   49.1876 C   0  0  0  0  0  0  0  0  0  0  0  0
   37.2991   81.1553   49.2577 C   0  0  0  0  0  0  0  0  0  0  0  0
   37.9362   80.7041   48.0326 C   0  0  0  0  0  0  0  0  0  0  0  0
   37.3009   80.4921   46.8017 C   0  0  0  0  0  0  0  0  0  0  0  0
   38.2361   80.0681   45.8895 C   0  0  0  0  0  0  0  0  0  0  0  0
   39.4048   80.0216   46.5389 N   0  0  0  0  0  0  0  0  0  0  0  0
   39.2233   80.3978   47.8034 N   0  0  0  0  0  0  0  0  0  0  0  0
   40.2906   80.4565   48.7705 C   0  0  0  0  0  0  0  0  0  0  0  0
   37.9492   81.1041   50.4704 C   0  0  0  0  0  0  0  0  0  0  0  0
   37.3083   81.5469   51.6354 C   0  0  0  0  0  0  0  0  0  0  0  0
   37.9679   81.5009   52.8895 N   0  0  0  0  0  0  0  0  0  0  0  0
   39.3837   81.2484   52.9243 C   0  0  0  0  0  0  0  0  0  0  0  0
   40.0284   81.4493   54.2504 C   0  0  0  0  0  0  0  0  0  0  0  0
   39.1835   81.8561   55.2640 O   0  0  0  0  0  0  0  0  0  0  0  0
   37.9878   81.1583   55.2566 C   0  0  0  0  0  0  0  0  0  0  0  0
   37.1802   81.7097   54.0816 C   0  0  0  0  0  0  0  0  0  0  0  0
   36.0263   82.0362   51.5807 C   0  0  0  0  0  0  0  0  0  0  0  0
   35.3756   82.0843   50.3473 C   0  0  0  0  0  0  0  0  0  0  0  0
   34.1576   82.4948   49.9630 N   0  0  0  0  0  0  0  0  0  0  0  0
   33.2048   83.1009   50.8210 C   0  0  0  0  0  0  0  0  0  0  0  0
   33.4483   84.4274   51.2437 C   0  0  0  0  0  0  0  0  0  0  0  0
   32.5185   84.9865   52.0669 C   0  0  0  0  0  0  0  0  0  0  0  0
   31.4171   84.3355   52.4731 N   0  0  0  0  0  0  0  0  0  0  0  0
   31.1990   83.0745   52.0629 C   0  0  0  0  0  0  0  0  0  0  0  0
   30.0603   82.3942   52.4799 C   0  0  0  0  0  0  0  0  0  0  0  0
   29.2148   83.0458   53.2905 F   0  0  0  0  0  0  0  0  0  0  0  0
   29.7617   81.1113   52.1108 C   0  0  0  0  0  0  0  0  0  0  0  0
   30.6535   80.4683   51.2750 C   0  0  0  0  0  0  0  0  0  0  0  0
   31.8000   81.0968   50.8308 C   0  0  0  0  0  0  0  0  0  0  0  0
   32.8897   80.2441   49.7803 Cl  0  0  0  0  0  0  0  0  0  0  0  0
   32.0936   82.3909   51.2078 C   0  0  0  0  0  0  0  0  0  0  0  0
  1  2  1  0
  2  3  2  0
  3  4  1  0
  4  5  2  0
  5  6  1  0
  6  7  2  0
  7  8  1  0
  8  9  2  0
  9 10  1  0
 10 11  1  0
  5 12  1  0
 12 13  2  0
 13 14  1  0
 14 15  1  0
 15 16  1  0
 16 17  1  0
 17 18  1  0
 18 19  1  0
 13 20  1  0
 20 21  2  0
 21 22  1  0
 22 23  1  0
 23 24  2  0
 24 25  1  0
 25 26  2  0
 26 27  1  0
 27 28  2  0
 28 29  1  0
 28 30  1  0
 30 31  2  0
 31 32  1  0
 32 33  1  0
 32 34  2  0
 22  2  1  0
 34 23  1  0
 21  4  1  0
 34 27  1  0
 10  6  1  0
 19 14  1  0
M  END
$$$$
