
     RDKit          3D

 20 20  0  0  0  0  0  0  0  0999 V2000
   12.0865   48.8541   18.0951 C   0  0  0  0  0  0  0  0  0  0  0  0
   13.3851   48.3274   18.6060 C   0  0  0  0  0  0  0  0  0  0  0  0
   14.5009   49.3448   18.5911 C   0  0  0  0  0  0  0  0  0  0  0  0
   15.5729   48.9841   17.5877 C   0  0  0  0  0  0  0  0  0  0  0  0
   16.6524   49.8286   17.6288 O   0  0  0  0  0  0  0  0  0  0  0  0
   17.2793   50.0666   16.4371 C   0  0  0  0  0  0  0  0  0  0  0  0
   18.7757   50.2251   16.7402 C   0  0  0  0  0  0  0  0  0  0  0  0
   16.7931   51.3347   15.7892 C   0  0  0  0  0  0  0  0  0  0  0  0
   15.9581   52.0629   16.3780 O   0  0  0  0  0  0  0  0  0  0  0  0
   17.2467   51.7549   14.5115 N   0  0  0  0  0  0  0  0  0  0  0  0
   16.8498   52.9775   13.9038 C   0  0  0  0  0  0  0  0  0  0  0  0
   15.8305   53.7618   14.3988 C   0  0  0  0  0  0  0  0  0  0  0  0
   15.4770   54.9547   13.7668 C   0  0  0  0  0  0  0  0  0  0  0  0
   16.1638   55.3308   12.6436 C   0  0  0  0  0  0  0  0  0  0  0  0
   15.8276   56.5424   11.9752 N   0  0  0  0  0  0  0  0  0  0  0  0
   14.8070   57.4186   12.3971 C   0  0  0  0  0  0  0  0  0  0  0  0
   14.4340   58.5967   11.6945 N   0  0  0  0  0  0  0  0  0  0  0  0
   14.2051   57.1015   13.4789 O   0  0  0  0  0  0  0  0  0  0  0  0
   17.1828   54.5374   12.1568 C   0  0  0  0  0  0  0  0  0  0  0  0
   17.5579   53.3479   12.7610 C   0  0  0  0  0  0  0  0  0  0  0  0
  1  2  1  0
  2  3  1  0
  3  4  1  0
  4  5  1  0
  5  6  1  0
  6  7  1  0
  6  8  1  0
  8  9  2  0
  8 10  1  0
 10 11  1  0
 11 12  2  0
 12 13  1  0
 13 14  2  0
 14 15  1  0
 15 16  1  0
 16 17  1  0
 16 18  2  0
 14 19  1  0
 19 20  2  0
 20 11  1  0
M  END
$$$$
