
     RDKit          3D

 27 30  0  0  0  0  0  0  0  0999 V2000
   16.0707   53.0525   11.5213 C   0  0  0  0  0  0  0  0  0  0  0  0
   16.8644   52.9615   12.7753 C   0  0  2  0  0  0  0  0  0  0  0  0
   16.4185   51.7559   13.6350 C   0  0  0  0  0  0  0  0  0  0  0  0
   16.7781   52.0312   15.0159 N   0  0  0  0  0  0  0  0  0  0  0  0
   16.1255   51.5246   16.1532 C   0  0  0  0  0  0  0  0  0  0  0  0
   15.8020   52.2683   17.1143 O   0  0  0  0  0  0  0  0  0  0  0  0
   15.7823   50.1389   16.3045 N   0  0  0  0  0  0  0  0  0  0  0  0
   16.0102   49.3791   17.4731 C   0  0  2  0  0  0  0  0  0  0  0  0
   16.5603   47.9690   17.1793 C   0  0  0  0  0  0  0  0  0  0  0  0
   15.8273   47.0822   18.1622 C   0  0  2  0  0  0  0  0  0  0  0  0
   14.5090   46.7288   17.4893 C   0  0  0  0  0  0  0  0  0  0  0  0
   13.8559   48.1126   17.4156 C   0  0  0  0  0  0  0  0  0  0  0  0
   14.7706   49.0381   18.2188 C   0  0  1  0  0  0  0  0  0  0  0  0
   15.3280   48.0401   19.1287 N   0  0  0  0  0  0  0  0  0  0  0  0
   15.3428   48.0384   20.5084 C   0  0  0  0  0  0  0  0  0  0  0  0
   15.3718   48.0261   21.6642 N   0  0  0  0  0  0  0  0  0  0  0  0
   17.9324   52.9040   15.2101 C   0  0  0  0  0  0  0  0  0  0  0  0
   17.7296   54.2889   14.6628 C   0  0  0  0  0  0  0  0  0  0  0  0
   16.7671   54.1605   13.5578 N   0  0  0  0  0  0  0  0  0  0  0  0
   15.8387   55.1649   13.3119 C   0  0  0  0  0  0  0  0  0  0  0  0
   14.9512   55.2049   12.2648 C   0  0  0  0  0  0  0  0  0  0  0  0
   14.0593   56.2464   12.0773 C   0  0  0  0  0  0  0  0  0  0  0  0
   14.0289   57.3042   12.9549 C   0  0  0  0  0  0  0  0  0  0  0  0
   13.1367   58.4046   12.8276 C   0  0  0  0  0  0  0  0  0  0  0  0
   12.4057   59.3340   12.7114 N   0  0  0  0  0  0  0  0  0  0  0  0
   14.9401   57.2528   14.0202 C   0  0  0  0  0  0  0  0  0  0  0  0
   15.7857   56.2224   14.1605 N   0  0  0  0  0  0  0  0  0  0  0  0
  2  1  1  6
  2  3  1  0
  3  4  1  0
  4  5  1  0
  5  6  2  0
  5  7  1  0
  8  7  1  6
  8  9  1  0
 10  9  1  6
 10 11  1  0
 11 12  1  0
 13 12  1  6
 13 14  1  0
 14 15  1  0
 15 16  3  0
  4 17  1  0
 17 18  1  0
 18 19  1  0
 19 20  1  0
 20 21  2  0
 21 22  1  0
 22 23  2  0
 23 24  1  0
 24 25  3  0
 23 26  1  0
 26 27  2  0
 19  2  1  0
 27 20  1  0
 13  8  1  0
 14 10  1  0
M  END
$$$$
