
     RDKit          3D

 23 25  0  0  0  0  0  0  0  0999 V2000
   17.0598   54.6835   10.5182 C   0  0  0  0  0  0  0  0  0  0  0  0
   16.5408   54.0695   11.7613 C   0  0  0  0  0  0  0  0  0  0  0  0
   16.1661   52.7405   11.7597 C   0  0  0  0  0  0  0  0  0  0  0  0
   15.6871   52.2014   12.9327 C   0  0  0  0  0  0  0  0  0  0  0  0
   15.5821   52.9701   14.0884 C   0  0  0  0  0  0  0  0  0  0  0  0
   15.9624   54.2774   14.0474 C   0  0  0  0  0  0  0  0  0  0  0  0
   16.4447   54.8561   12.9027 C   0  0  0  0  0  0  0  0  0  0  0  0
   16.8448   56.2658   12.8986 C   0  0  0  0  0  0  0  0  0  0  0  0
   18.0558   56.6126   12.8045 O   0  0  0  0  0  0  0  0  0  0  0  0
   15.8732   57.2976   13.0015 N   0  0  0  0  0  0  0  0  0  0  0  0
   16.3035   58.6852   12.7926 C   0  0  0  0  0  0  0  0  0  0  0  0
   15.3548   59.5466   13.5937 C   0  0  0  0  0  0  0  0  0  0  0  0
   13.9766   59.3888   13.0505 N   0  0  0  0  0  0  0  0  0  0  0  0
   13.2455   60.5864   12.9102 C   0  0  0  0  0  0  0  0  0  0  0  0
   13.4839   61.6401   13.7448 N   0  0  0  0  0  0  0  0  0  0  0  0
   12.8359   62.8042   13.7040 C   0  0  0  0  0  0  0  0  0  0  0  0
   11.8457   63.0029   12.7677 C   0  0  0  0  0  0  0  0  0  0  0  0
   11.5540   61.9882   11.8977 C   0  0  0  0  0  0  0  0  0  0  0  0
   12.2701   60.7790   11.9853 C   0  0  0  0  0  0  0  0  0  0  0  0
   11.9497   59.7291   11.0416 C   0  0  0  0  0  0  0  0  0  0  0  0
   11.7115   58.8791   10.2834 N   0  0  0  0  0  0  0  0  0  0  0  0
   13.5330   58.0562   12.7453 C   0  0  0  0  0  0  0  0  0  0  0  0
   14.5071   57.0157   13.2995 C   0  0  0  0  0  0  0  0  0  0  0  0
  1  2  1  0
  2  3  2  0
  3  4  1  0
  4  5  2  0
  5  6  1  0
  6  7  2  0
  7  8  1  0
  8  9  2  0
  8 10  1  0
 10 11  1  0
 11 12  1  0
 12 13  1  0
 13 14  1  0
 14 15  2  0
 15 16  1  0
 16 17  2  0
 17 18  1  0
 18 19  2  0
 19 20  1  0
 20 21  3  0
 13 22  1  0
 22 23  1  0
  7  2  1  0
 23 10  1  0
 19 14  1  0
M  END
$$$$
