
     RDKit          3D

 21 23  0  0  0  0  0  0  0  0999 V2000
   13.6881   47.8989   19.4682 C   0  0  0  0  0  0  0  0  0  0  0  0
   14.4233   48.9058   18.6222 C   0  0  0  0  0  0  0  0  0  0  0  0
   15.8206   48.9319   18.6921 C   0  0  0  0  0  0  0  0  0  0  0  0
   16.4723   49.8571   17.9156 C   0  0  0  0  0  0  0  0  0  0  0  0
   15.7831   50.7222   17.1030 C   0  0  0  0  0  0  0  0  0  0  0  0
   16.4303   51.6936   16.2877 N   0  0  0  0  0  0  0  0  0  0  0  0
   15.8302   52.2800   15.1442 C   0  0  0  0  0  0  0  0  0  0  0  0
   14.5482   52.3047   15.1542 O   0  0  0  0  0  0  0  0  0  0  0  0
   16.5725   52.8305   14.0088 C   0  0  0  0  0  0  0  0  0  0  0  0
   17.5382   52.0566   13.3628 C   0  0  0  0  0  0  0  0  0  0  0  0
   18.2376   52.5700   12.2925 C   0  0  0  0  0  0  0  0  0  0  0  0
   19.1135   51.8385   11.7231 O   0  0  0  0  0  0  0  0  0  0  0  0
   18.0256   53.8124   11.8326 N   0  0  0  0  0  0  0  0  0  0  0  0
   17.0893   54.5847   12.4464 C   0  0  0  0  0  0  0  0  0  0  0  0
   16.8628   55.8852   11.9713 C   0  0  0  0  0  0  0  0  0  0  0  0
   15.9267   56.6926   12.5671 C   0  0  0  0  0  0  0  0  0  0  0  0
   15.2113   56.2063   13.6404 C   0  0  0  0  0  0  0  0  0  0  0  0
   15.4319   54.9231   14.1120 C   0  0  0  0  0  0  0  0  0  0  0  0
   16.3762   54.1014   13.5154 C   0  0  0  0  0  0  0  0  0  0  0  0
   14.4008   50.6759   17.0512 C   0  0  0  0  0  0  0  0  0  0  0  0
   13.7320   49.7697   17.8099 C   0  0  0  0  0  0  0  0  0  0  0  0
  1  2  1  0
  2  3  2  0
  3  4  1  0
  4  5  2  0
  5  6  1  0
  6  7  1  0
  7  8  2  0
  7  9  1  0
  9 10  2  0
 10 11  1  0
 11 12  2  0
 11 13  1  0
 13 14  1  0
 14 15  2  0
 15 16  1  0
 16 17  2  0
 17 18  1  0
 18 19  2  0
  5 20  1  0
 20 21  2  0
 21  2  1  0
 19  9  1  0
 19 14  1  0
M  END
$$$$
