
     RDKit          3D

 30 33  0  0  0  0  0  0  0  0999 V2000
   12.0456   99.4935   56.6275 O   0  0  0  0  0  0  0  0  0  0  0  0
   13.2137   99.5644   57.0440 C   0  0  0  0  0  0  0  0  0  0  0  0
   13.5380   99.6763   58.3978 N   0  0  0  0  0  0  0  0  0  0  0  0
   12.9508   98.8539   59.4237 C   0  0  0  0  0  0  0  0  0  0  0  0
   12.6507   97.4599   59.0174 C   0  0  0  0  0  0  0  0  0  0  0  0
   12.0959   97.3048   57.7722 O   0  0  0  0  0  0  0  0  0  0  0  0
   11.7427   96.7939   60.0526 C   0  0  0  0  0  0  0  0  0  0  0  0
   12.1733   95.4470   60.2352 O   0  0  0  0  0  0  0  0  0  0  0  0
   12.4873   94.9436   61.4851 C   0  0  0  0  0  0  0  0  0  0  0  0
   11.4740   94.3664   62.2589 C   0  0  0  0  0  0  0  0  0  0  0  0
   11.8441   93.8778   63.5036 C   0  0  0  0  0  0  0  0  0  0  0  0
   10.5751   93.1466   64.4909 Cl  0  0  0  0  0  0  0  0  0  0  0  0
   13.1269   93.9374   63.9894 C   0  0  0  0  0  0  0  0  0  0  0  0
   14.0924   94.5191   63.1829 C   0  0  0  0  0  0  0  0  0  0  0  0
   15.7515   94.6165   63.7667 Cl  0  0  0  0  0  0  0  0  0  0  0  0
   13.7796   95.0197   61.9396 C   0  0  0  0  0  0  0  0  0  0  0  0
   14.2705   99.5269   56.0592 N   0  0  0  0  0  0  0  0  0  0  0  0
   13.9345   99.7832   54.7029 C   0  0  0  0  0  0  0  0  0  0  0  0
   12.7048   99.3609   54.2522 C   0  0  0  0  0  0  0  0  0  0  0  0
   12.3632   99.5987   52.9488 C   0  0  0  0  0  0  0  0  0  0  0  0
   13.2800  100.2579   52.1424 C   0  0  0  0  0  0  0  0  0  0  0  0
   14.4823  100.6672   52.5953 N   0  0  0  0  0  0  0  0  0  0  0  0
   15.4841  101.3003   52.0035 N   0  0  0  0  0  0  0  0  0  0  0  0
   16.4928  101.4900   52.8931 C   0  0  0  0  0  0  0  0  0  0  0  0
   17.8011  102.1634   52.6293 C   0  0  0  0  0  0  0  0  0  0  0  0
   18.5529  101.4701   51.5140 C   0  0  0  0  0  0  0  0  0  0  0  0
   17.8393  102.3947   50.5519 C   0  0  0  0  0  0  0  0  0  0  0  0
   17.6572  103.3549   51.7071 C   0  0  0  0  0  0  0  0  0  0  0  0
   16.0506  100.9459   54.0323 N   0  0  0  0  0  0  0  0  0  0  0  0
   14.8150  100.4367   53.8609 C   0  0  0  0  0  0  0  0  0  0  0  0
  1  2  2  0
  2  3  1  0
  3  4  1  0
  4  5  1  0
  5  6  1  0
  5  7  1  0
  7  8  1  0
  8  9  1  0
  9 10  2  0
 10 11  1  0
 11 12  1  0
 11 13  2  0
 13 14  1  0
 14 15  1  0
 14 16  2  0
  2 17  1  0
 17 18  1  0
 18 19  2  0
 19 20  1  0
 20 21  2  0
 21 22  1  0
 22 23  1  0
 23 24  2  0
 24 25  1  0
 25 26  1  0
 26 27  1  0
 27 28  1  0
 24 29  1  0
 29 30  2  0
 16  9  1  0
 30 18  1  0
 30 22  1  0
 28 25  1  0
M  END
$$$$
