
     RDKit          3D

 27 28  0  0  0  0  0  0  0  0999 V2000
   41.0047   85.9606   49.0363 C   0  0  0  0  0  0  0  0  0  0  0  0
   42.0334   84.9522   48.7059 C   0  0  0  0  0  0  0  0  0  0  0  0
   43.2355   85.2057   48.1077 N   0  0  0  0  0  0  0  0  0  0  0  0
   43.9110   84.1098   47.9249 N   0  0  0  0  0  0  0  0  0  0  0  0
   45.2402   83.9443   47.3155 C   0  0  0  0  0  0  0  0  0  0  0  0
   43.1967   83.0777   48.3900 C   0  0  0  0  0  0  0  0  0  0  0  0
   43.5478   81.6321   48.4075 C   0  0  0  0  0  0  0  0  0  0  0  0
   41.9901   83.6036   48.8943 C   0  0  0  0  0  0  0  0  0  0  0  0
   40.9760   82.7792   49.4274 N   0  0  0  0  0  0  0  0  0  0  0  0
   40.3547   82.8626   50.6806 C   0  0  0  0  0  0  0  0  0  0  0  0
   40.6072   83.9012   51.3876 O   0  0  0  0  0  0  0  0  0  0  0  0
   39.4385   81.9152   51.3092 C   0  0  0  0  0  0  0  0  0  0  0  0
   38.1026   81.8870   50.8369 N   0  0  0  0  0  0  0  0  0  0  0  0
   37.0099   82.0810   51.7449 C   0  0  0  0  0  0  0  0  0  0  0  0
   37.3070   82.2856   52.9572 O   0  0  0  0  0  0  0  0  0  0  0  0
   35.6668   82.0535   51.3461 N   0  0  0  0  0  0  0  0  0  0  0  0
   34.5480   82.3316   52.2167 C   0  0  0  0  0  0  0  0  0  0  0  0
   33.2436   82.2275   51.5607 C   0  0  0  0  0  0  0  0  0  0  0  0
   33.1176   81.9230   50.2379 C   0  0  0  0  0  0  0  0  0  0  0  0
   31.8627   81.8240   49.6281 C   0  0  0  0  0  0  0  0  0  0  0  0
   30.7314   82.0439   50.4018 C   0  0  0  0  0  0  0  0  0  0  0  0
   30.8351   82.3528   51.7391 C   0  0  0  0  0  0  0  0  0  0  0  0
   29.5875   82.5810   52.5046 C   0  0  0  0  0  0  0  0  0  0  0  0
   29.3589   81.4340   53.2728 F   0  0  0  0  0  0  0  0  0  0  0  0
   28.4897   82.7927   51.6926 F   0  0  0  0  0  0  0  0  0  0  0  0
   29.7446   83.6290   53.3887 F   0  0  0  0  0  0  0  0  0  0  0  0
   32.1044   82.4394   52.2988 C   0  0  0  0  0  0  0  0  0  0  0  0
  1  2  1  0
  2  3  2  0
  3  4  1  0
  4  5  1  0
  4  6  1  0
  6  7  1  0
  6  8  2  0
  8  9  1  0
  9 10  1  0
 10 11  2  0
 10 12  1  0
 12 13  1  0
 13 14  1  0
 14 15  2  0
 14 16  1  0
 16 17  1  0
 17 18  1  0
 18 19  2  0
 19 20  1  0
 20 21  2  0
 21 22  1  0
 22 23  1  0
 23 24  1  0
 23 25  1  0
 23 26  1  0
 22 27  2  0
  8  2  1  0
 27 18  1  0
M  END
$$$$
