
     RDKit          3D

 24 26  0  0  0  0  0  0  0  0999 V2000
   13.0753   62.8119   11.1447 C   0  0  0  0  0  0  0  0  0  0  0  0
   12.5743   62.2257   12.4347 C   0  0  0  0  0  0  0  0  0  0  0  0
   11.8408   63.2780   13.2729 C   0  0  0  0  0  0  0  0  0  0  0  0
   11.5069   62.8364   14.5254 O   0  0  0  0  0  0  0  0  0  0  0  0
   11.8516   61.0117   12.3209 N   0  0  0  0  0  0  0  0  0  0  0  0
   12.2294   59.8780   11.8979 C   0  0  0  0  0  0  0  0  0  0  0  0
   11.5903   59.0518   11.0587 N   0  0  0  0  0  0  0  0  0  0  0  0
   12.3180   57.9633   10.8644 N   0  0  0  0  0  0  0  0  0  0  0  0
   13.4582   58.0408   11.5703 C   0  0  0  0  0  0  0  0  0  0  0  0
   14.5553   57.2420   11.7547 C   0  0  0  0  0  0  0  0  0  0  0  0
   15.6106   57.5532   12.5438 N   0  0  0  0  0  0  0  0  0  0  0  0
   16.7256   56.6116   12.6551 C   0  0  0  0  0  0  0  0  0  0  0  0
   16.2910   55.2628   13.0799 C   0  0  0  0  0  0  0  0  0  0  0  0
   15.8629   55.0388   14.3867 C   0  0  0  0  0  0  0  0  0  0  0  0
   15.4718   53.7606   14.7246 C   0  0  0  0  0  0  0  0  0  0  0  0
   15.4926   52.7228   13.8250 C   0  0  0  0  0  0  0  0  0  0  0  0
   15.1061   51.4719   14.1686 F   0  0  0  0  0  0  0  0  0  0  0  0
   15.9135   52.9567   12.5513 C   0  0  0  0  0  0  0  0  0  0  0  0
   15.9616   51.6697   11.3581 Cl  0  0  0  0  0  0  0  0  0  0  0  0
   16.3120   54.2268   12.1811 C   0  0  0  0  0  0  0  0  0  0  0  0
   15.5845   58.7289   13.1949 C   0  0  0  0  0  0  0  0  0  0  0  0
   16.5542   59.0378   13.9333 O   0  0  0  0  0  0  0  0  0  0  0  0
   14.4894   59.5770   13.0396 C   0  0  0  0  0  0  0  0  0  0  0  0
   13.4157   59.2496   12.2306 C   0  0  0  0  0  0  0  0  0  0  0  0
  1  2  1  0
  2  3  1  0
  3  4  1  0
  2  5  1  0
  5  6  2  3
  6  7  1  0
  7  8  1  0
  8  9  1  0
  9 10  2  0
 10 11  1  0
 11 12  1  0
 12 13  1  0
 13 14  2  0
 14 15  1  0
 15 16  2  0
 16 17  1  0
 16 18  1  0
 18 19  1  0
 18 20  2  0
 11 21  1  0
 21 22  2  0
 21 23  1  0
 23 24  2  0
 24  6  1  0
 24  9  1  0
 20 13  1  0
M  END
$$$$
