
     RDKit          3D

 32 35  0  0  0  0  0  0  0  0999 V2000
    8.0903   97.2196   57.0498 C   0  0  0  0  0  0  0  0  0  0  0  0
    9.3011   97.0581   57.5733 C   0  0  0  0  0  0  0  0  0  0  0  0
    9.8167   98.0063   58.6057 C   0  0  0  0  0  0  0  0  0  0  0  0
   11.2111   97.7219   58.8688 N   0  0  0  0  0  0  0  0  0  0  0  0
   11.7162   97.0340   59.9110 C   0  0  0  0  0  0  0  0  0  0  0  0
   10.8679   96.4555   60.9675 C   0  0  0  0  0  0  0  0  0  0  0  0
   11.3027   96.3990   62.2788 C   0  0  0  0  0  0  0  0  0  0  0  0
   10.5421   95.8765   63.2463 N   0  0  0  0  0  0  0  0  0  0  0  0
    9.3385   95.3989   62.9430 C   0  0  0  0  0  0  0  0  0  0  0  0
    8.8621   95.4338   61.6477 C   0  0  0  0  0  0  0  0  0  0  0  0
    9.6496   95.9652   60.6965 N   0  0  0  0  0  0  0  0  0  0  0  0
   13.0513   96.9908   59.7922 N   0  0  0  0  0  0  0  0  0  0  0  0
   13.3907   97.6630   58.6560 C   0  0  0  0  0  0  0  0  0  0  0  0
   14.6104   97.9232   58.0622 C   0  0  0  0  0  0  0  0  0  0  0  0
   15.7569   97.4728   58.6292 F   0  0  0  0  0  0  0  0  0  0  0  0
   14.6006   98.6482   56.8900 C   0  0  0  0  0  0  0  0  0  0  0  0
   13.4438   99.1109   56.3045 C   0  0  0  0  0  0  0  0  0  0  0  0
   13.4632   99.8284   55.1403 O   0  0  0  0  0  0  0  0  0  0  0  0
   14.6285  100.4285   54.6847 C   0  0  0  0  0  0  0  0  0  0  0  0
   15.4911  101.0807   55.5307 C   0  0  0  0  0  0  0  0  0  0  0  0
   16.6194  101.6440   54.9885 C   0  0  0  0  0  0  0  0  0  0  0  0
   16.8753  101.5637   53.6817 N   0  0  0  0  0  0  0  0  0  0  0  0
   16.0661  100.9329   52.7803 C   0  0  0  0  0  0  0  0  0  0  0  0
   16.4572  100.9233   51.4274 N   0  0  0  0  0  0  0  0  0  0  0  0
   15.8166  100.2659   50.3611 C   0  0  0  0  0  0  0  0  0  0  0  0
   14.6543   99.8781   50.4684 O   0  0  0  0  0  0  0  0  0  0  0  0
   16.4686  100.0297   49.1499 O   0  0  0  0  0  0  0  0  0  0  0  0
   15.9375  100.5554   47.9493 C   0  0  0  0  0  0  0  0  0  0  0  0
   16.8834  101.4900   47.2592 C   0  0  0  0  0  0  0  0  0  0  0  0
   14.9383  100.3693   53.3189 C   0  0  0  0  0  0  0  0  0  0  0  0
   12.2213   98.8548   56.8920 C   0  0  0  0  0  0  0  0  0  0  0  0
   12.2302   98.1249   58.0724 C   0  0  0  0  0  0  0  0  0  0  0  0
  1  2  2  0
  2  3  1  0
  3  4  1  0
  4  5  1  0
  5  6  1  0
  6  7  2  0
  7  8  1  0
  8  9  2  0
  9 10  1  0
 10 11  2  0
  5 12  2  0
 12 13  1  0
 13 14  2  0
 14 15  1  0
 14 16  1  0
 16 17  2  0
 17 18  1  0
 18 19  1  0
 19 20  2  0
 20 21  1  0
 21 22  2  0
 22 23  1  0
 23 24  1  0
 24 25  1  0
 25 26  2  0
 25 27  1  0
 27 28  1  0
 28 29  1  0
 23 30  2  0
 17 31  1  0
 31 32  2  0
 32  4  1  0
 11  6  1  0
 32 13  1  0
 30 19  1  0
M  END
$$$$
