
     RDKit          3D

 22 24  0  0  0  0  0  0  0  0999 V2000
   15.6091   50.2414   17.6793 C   0  0  0  0  0  0  0  0  0  0  0  0
   16.6407   50.6883   16.7649 N   0  0  0  0  0  0  0  0  0  0  0  0
   16.3715   51.8132   15.8929 C   0  0  0  0  0  0  0  0  0  0  0  0
   15.2911   52.4268   16.0341 O   0  0  0  0  0  0  0  0  0  0  0  0
   17.3085   52.1900   14.9219 N   0  0  0  0  0  0  0  0  0  0  0  0
   17.0738   53.0028   13.7876 C   0  0  0  0  0  0  0  0  0  0  0  0
   17.6101   52.7268   12.5626 C   0  0  0  0  0  0  0  0  0  0  0  0
   17.3291   53.5758   11.5047 C   0  0  0  0  0  0  0  0  0  0  0  0
   16.5340   54.6938   11.6105 C   0  0  0  0  0  0  0  0  0  0  0  0
   16.0014   54.9503   12.8686 C   0  0  0  0  0  0  0  0  0  0  0  0
   16.2513   54.1430   13.9361 C   0  0  0  0  0  0  0  0  0  0  0  0
   15.1425   56.1297   13.0223 C   0  0  0  0  0  0  0  0  0  0  0  0
   14.8918   56.9334   11.9371 C   0  0  0  0  0  0  0  0  0  0  0  0
   14.0684   57.9524   12.3836 C   0  0  0  0  0  0  0  0  0  0  0  0
   13.5309   59.0503   11.6052 C   0  0  0  0  0  0  0  0  0  0  0  0
   12.7709   60.0682   12.1968 N   0  0  0  0  0  0  0  0  0  0  0  0
   13.7648   59.0734   10.3575 O   0  0  0  0  0  0  0  0  0  0  0  0
   13.8514   57.7452   13.6773 N   0  0  0  0  0  0  0  0  0  0  0  0
   14.5032   56.6277   14.0929 N   0  0  0  0  0  0  0  0  0  0  0  0
   14.4462   56.1572   15.4625 C   0  0  0  0  0  0  0  0  0  0  0  0
   15.4255   56.6854   10.6076 C   0  0  0  0  0  0  0  0  0  0  0  0
   16.3058   55.5298   10.4216 C   0  0  0  0  0  0  0  0  0  0  0  0
  1  2  1  0
  2  3  1  0
  3  4  2  0
  3  5  1  0
  5  6  1  0
  6  7  2  0
  7  8  1  0
  8  9  2  0
  9 10  1  0
 10 11  2  0
 10 12  1  0
 12 13  2  0
 13 14  1  0
 14 15  1  0
 15 16  1  0
 15 17  2  0
 14 18  2  0
 18 19  1  0
 19 20  1  0
 13 21  1  0
 21 22  1  0
 11  6  1  0
 19 12  1  0
 22  9  1  0
M  END
$$$$
