
     RDKit          3D

 29 32  0  0  0  0  0  0  0  0999 V2000
   13.7555   49.4309   16.3880 C   0  0  0  0  0  0  0  0  0  0  0  0
   14.7132   50.1808   17.3092 C   0  0  1  0  0  0  0  0  0  0  0  0
   15.0113   49.2795   18.4866 C   0  0  0  0  0  0  0  0  0  0  0  0
   15.4793   48.0270   17.9936 N   0  0  0  0  0  0  0  0  0  0  0  0
   15.6730   47.0226   18.9929 C   0  0  0  0  0  0  0  0  0  0  0  0
   14.8754   47.3810   20.2453 C   0  0  0  0  0  0  0  0  0  0  0  0
   15.9835   47.1603   21.0469 O   0  0  0  0  0  0  0  0  0  0  0  0
   16.8029   47.3817   19.9485 C   0  0  0  0  0  0  0  0  0  0  0  0
   16.4858   48.0819   16.9856 C   0  0  0  0  0  0  0  0  0  0  0  0
   17.0422   49.4592   16.8244 C   0  0  0  0  0  0  0  0  0  0  0  0
   15.9573   50.3815   16.5929 N   0  0  0  0  0  0  0  0  0  0  0  0
   16.0767   51.4744   15.6860 C   0  0  0  0  0  0  0  0  0  0  0  0
   15.6154   52.7125   16.0663 C   0  0  0  0  0  0  0  0  0  0  0  0
   15.7195   53.8055   15.1956 C   0  0  0  0  0  0  0  0  0  0  0  0
   15.2475   55.0089   15.5962 F   0  0  0  0  0  0  0  0  0  0  0  0
   16.2833   53.6186   13.9728 C   0  0  0  0  0  0  0  0  0  0  0  0
   16.4510   54.6745   13.0106 C   0  0  0  0  0  0  0  0  0  0  0  0
   17.3401   54.5165   12.0951 O   0  0  0  0  0  0  0  0  0  0  0  0
   15.7373   55.8851   12.9588 N   0  0  0  0  0  0  0  0  0  0  0  0
   16.4405   57.2494   12.1630 S   0  0  0  0  0  6  0  0  0  0  0  0
   17.9154   57.2915   12.4638 O   0  0  0  0  0  0  0  0  0  0  0  0
   16.2140   57.0770   10.6791 O   0  0  0  0  0  0  0  0  0  0  0  0
   15.6433   58.6653   12.6724 N   0  0  0  0  0  0  0  0  0  0  0  0
   15.2744   58.6982   14.0763 C   0  0  0  0  0  0  0  0  0  0  0  0
   13.8649   59.0385   13.6524 C   0  0  0  0  0  0  0  0  0  0  0  0
   14.3352   58.9318   12.1920 C   0  0  0  0  0  0  0  0  0  0  0  0
   16.7418   52.3481   13.6173 C   0  0  0  0  0  0  0  0  0  0  0  0
   16.6469   51.2829   14.4502 C   0  0  0  0  0  0  0  0  0  0  0  0
   17.2409   49.7028   13.9538 Cl  0  0  0  0  0  0  0  0  0  0  0  0
  2  1  1  6
  2  3  1  0
  3  4  1  0
  4  5  1  0
  5  6  1  0
  6  7  1  0
  7  8  1  0
  4  9  1  0
  9 10  1  0
 10 11  1  0
 11 12  1  0
 12 13  2  0
 13 14  1  0
 14 15  1  0
 14 16  2  0
 16 17  1  0
 17 18  2  0
 17 19  1  0
 19 20  1  0
 20 21  2  0
 20 22  2  0
 20 23  1  0
 23 24  1  0
 24 25  1  0
 25 26  1  0
 16 27  1  0
 27 28  2  0
 28 29  1  0
 11  2  1  0
 28 12  1  0
  8  5  1  0
 26 23  1  0
M  END
$$$$
