
     RDKit          3D

 18 20  0  0  0  0  0  0  0  0999 V2000
   10.8953  101.5206   57.4834 C   0  0  0  0  0  0  0  0  0  0  0  0
   11.4523  100.3619   58.1969 C   0  0  0  0  0  0  0  0  0  0  0  0
   10.7872   99.7920   59.2804 C   0  0  0  0  0  0  0  0  0  0  0  0
   11.2862   98.7114   59.9616 C   0  0  0  0  0  0  0  0  0  0  0  0
   12.4916   98.1788   59.5491 C   0  0  0  0  0  0  0  0  0  0  0  0
   13.1965   96.6678   60.4962 Br  0  0  0  0  0  0  0  0  0  0  0  0
   13.1942   98.6971   58.4875 C   0  0  0  0  0  0  0  0  0  0  0  0
   12.6485   99.7828   57.8376 C   0  0  0  0  0  0  0  0  0  0  0  0
   13.3742  100.3290   56.7304 N   0  0  0  0  0  0  0  0  0  0  0  0
   14.0679   99.4756   55.7859 C   0  0  0  0  0  0  0  0  0  0  0  0
   15.0615  100.2849   55.0738 C   0  0  0  0  0  0  0  0  0  0  0  0
   15.8008  101.3049   55.5546 N   0  0  0  0  0  0  0  0  0  0  0  0
   16.5758  101.7677   54.5912 N   0  0  0  0  0  0  0  0  0  0  0  0
   16.3443  101.0680   53.5207 N   0  0  0  0  0  0  0  0  0  0  0  0
   15.4190  100.1479   53.7817 N   0  0  0  0  0  0  0  0  0  0  0  0
   14.9481   99.2160   52.7924 C   0  0  0  0  0  0  0  0  0  0  0  0
   13.8624   99.8006   51.8799 C   0  0  0  0  0  0  0  0  0  0  0  0
   13.5981   98.6305   52.8364 C   0  0  0  0  0  0  0  0  0  0  0  0
  1  2  1  0
  2  3  2  0
  3  4  1  0
  4  5  2  0
  5  6  1  0
  5  7  1  0
  7  8  2  0
  8  9  1  0
  9 10  1  0
 10 11  1  0
 11 12  2  0
 12 13  1  0
 13 14  2  0
 14 15  1  0
 15 16  1  0
 16 17  1  0
 17 18  1  0
  8  2  1  0
 15 11  1  0
 18 16  1  0
M  END
$$$$
