
     RDKit          3D

 20 21  0  0  0  0  0  0  0  0999 V2000
   40.9481   80.0016   51.0053 C   0  0  0  0  0  0  0  0  0  0  0  0
   39.5930   80.1543   50.6274 O   0  0  0  0  0  0  0  0  0  0  0  0
   38.6925   80.8639   51.4479 C   0  0  0  0  0  0  0  0  0  0  0  0
   39.1109   81.4244   52.6365 C   0  0  0  0  0  0  0  0  0  0  0  0
   38.2432   82.1177   53.4441 C   0  0  0  0  0  0  0  0  0  0  0  0
   36.9175   82.2549   53.0523 C   0  0  0  0  0  0  0  0  0  0  0  0
   36.4624   81.7035   51.8620 C   0  0  0  0  0  0  0  0  0  0  0  0
   35.0621   81.8728   51.4965 C   0  0  0  0  0  0  0  0  0  0  0  0
   34.0508   81.9445   52.4297 C   0  0  0  0  0  0  0  0  0  0  0  0
   32.7214   82.1112   52.0784 C   0  0  0  0  0  0  0  0  0  0  0  0
   32.3553   82.2129   50.7719 C   0  0  0  0  0  0  0  0  0  0  0  0
   30.9403   82.3920   50.3630 C   0  0  1  0  0  0  0  0  0  0  0  0
   29.9786   81.4161   51.0635 C   0  0  0  0  0  0  0  0  0  0  0  0
   29.9131   82.8753   51.2910 C   0  0  2  0  0  0  0  0  0  0  0  0
   28.7208   83.6246   50.7681 C   0  0  0  0  0  0  0  0  0  0  0  0
   27.8693   83.9818   51.9125 N   0  0  0  0  0  0  0  0  0  0  0  0
   33.3460   82.1448   49.8116 C   0  0  0  0  0  0  0  0  0  0  0  0
   34.6676   81.9789   50.1616 C   0  0  0  0  0  0  0  0  0  0  0  0
   37.3760   81.0206   51.0942 C   0  0  0  0  0  0  0  0  0  0  0  0
   34.9313   81.8499   51.4920 Cl  0  0  0  0  0  0  0  0  0  0  0  0
  1  2  1  0
  2  3  1  0
  3  4  2  0
  4  5  1  0
  5  6  2  0
  6  7  1  0
  7  8  1  0
  8  9  2  0
  9 10  1  0
 10 11  2  0
 12 11  1  1
 12 13  1  0
 13 14  1  0
 14 15  1  6
 15 16  1  0
 11 17  1  0
 17 18  2  0
  7 19  2  0
 19  3  1  0
 18  8  1  0
 14 12  1  0
M  END
$$$$
