
     RDKit          3D

 26 27  0  0  0  0  0  0  0  0999 V2000
   -5.5717   60.5460   28.5299 C   0  0  0  0  0  0  0  0  0  0  0  0
   -5.7237   60.4053   30.0182 C   0  0  0  0  0  0  0  0  0  0  0  0
   -6.4897   61.5512   30.4817 N   0  0  0  0  0  0  0  0  0  0  0  0
   -7.5941   61.3083   31.3601 C   0  0  0  0  0  0  0  0  0  0  0  0
   -7.6363   60.2757   32.0722 O   0  0  0  0  0  0  0  0  0  0  0  0
   -8.6780   62.2195   31.4599 N   0  0  0  0  0  0  0  0  0  0  0  0
   -9.8024   61.9980   32.3413 C   0  0  0  0  0  0  0  0  0  0  0  0
  -10.9567   61.3478   31.6593 C   0  0  0  0  0  0  0  0  0  0  0  0
  -10.7072   59.9374   31.3618 N   0  0  0  0  0  0  0  0  0  0  0  0
  -10.9958   58.9171   32.2795 C   0  0  0  0  0  0  0  0  0  0  0  0
  -12.1278   59.0647   32.8864 O   0  0  0  0  0  0  0  0  0  0  0  0
  -10.1629   57.7748   32.5782 C   0  0  0  0  0  0  0  0  0  0  0  0
  -10.2840   57.2330   33.8467 C   0  0  0  0  0  0  0  0  0  0  0  0
   -9.5457   56.1549   34.2293 C   0  0  0  0  0  0  0  0  0  0  0  0
   -8.6638   55.5969   33.3346 C   0  0  0  0  0  0  0  0  0  0  0  0
   -8.5045   56.0950   32.0635 C   0  0  0  0  0  0  0  0  0  0  0  0
   -9.2837   57.2045   31.7122 C   0  0  0  0  0  0  0  0  0  0  0  0
   -9.1161   57.6842   30.4602 F   0  0  0  0  0  0  0  0  0  0  0  0
   -4.4013   60.4825   30.7133 C   0  0  0  0  0  0  0  0  0  0  0  0
   -3.5219   59.4256   30.6356 C   0  0  0  0  0  0  0  0  0  0  0  0
   -2.2825   59.4832   31.2796 C   0  0  0  0  0  0  0  0  0  0  0  0
   -1.9340   60.5943   31.9940 C   0  0  0  0  0  0  0  0  0  0  0  0
   -0.7445   60.7219   32.6473 F   0  0  0  0  0  0  0  0  0  0  0  0
   -2.8052   61.6742   32.0869 C   0  0  0  0  0  0  0  0  0  0  0  0
   -2.4949   62.7817   32.7804 F   0  0  0  0  0  0  0  0  0  0  0  0
   -4.0241   61.5898   31.4400 C   0  0  0  0  0  0  0  0  0  0  0  0
  1  2  1  0
  2  3  1  0
  3  4  1  0
  4  5  2  0
  4  6  1  0
  6  7  1  0
  7  8  1  0
  8  9  1  0
  9 10  1  0
 10 11  2  0
 10 12  1  0
 12 13  2  0
 13 14  1  0
 14 15  2  0
 15 16  1  0
 16 17  2  0
 17 18  1  0
  2 19  1  0
 19 20  2  0
 20 21  1  0
 21 22  2  0
 22 23  1  0
 22 24  1  0
 24 25  1  0
 24 26  2  0
 17 12  1  0
 26 19  1  0
M  END
$$$$
