
     RDKit          3D

 30 31  0  0  0  0  0  0  0  0999 V2000
  -11.8953   63.4543   34.4687 C   0  0  0  0  0  0  0  0  0  0  0  0
  -10.7917   63.3933   33.4338 C   0  0  0  0  0  0  0  0  0  0  0  0
  -10.6502   64.7582   32.8345 C   0  0  0  0  0  0  0  0  0  0  0  0
  -11.0719   62.3193   32.4028 C   0  0  2  0  0  0  0  0  0  0  0  0
   -9.9080   62.1280   31.6163 N   0  0  0  0  0  0  0  0  0  0  0  0
   -8.8420   61.2371   31.7970 C   0  0  0  0  0  0  0  0  0  0  0  0
   -7.6589   61.7235   31.9627 O   0  0  0  0  0  0  0  0  0  0  0  0
   -8.8956   59.7551   31.8237 C   0  0  2  0  0  0  0  0  0  0  0  0
   -8.0862   59.1417   30.7257 C   0  0  0  0  0  0  0  0  0  0  0  0
   -6.6244   59.3786   30.8367 C   0  0  0  0  0  0  0  0  0  0  0  0
   -5.8319   58.6206   31.7055 C   0  0  0  0  0  0  0  0  0  0  0  0
   -4.4795   58.8177   31.8081 C   0  0  0  0  0  0  0  0  0  0  0  0
   -3.8398   59.7743   31.0576 C   0  0  0  0  0  0  0  0  0  0  0  0
   -2.4773   59.9932   31.1422 O   0  0  0  0  0  0  0  0  0  0  0  0
   -1.6095   59.2544   30.3172 C   0  0  0  0  0  0  0  0  0  0  0  0
   -0.3864   59.9030   30.1620 F   0  0  0  0  0  0  0  0  0  0  0  0
   -2.1513   59.0288   29.0719 F   0  0  0  0  0  0  0  0  0  0  0  0
   -1.3415   58.0485   30.9531 F   0  0  0  0  0  0  0  0  0  0  0  0
   -4.6032   60.5382   30.1894 C   0  0  0  0  0  0  0  0  0  0  0  0
   -5.9622   60.3323   30.0934 C   0  0  0  0  0  0  0  0  0  0  0  0
  -10.1932   59.2091   32.0259 N   0  0  0  0  0  0  0  0  0  0  0  0
  -10.4711   57.9148   31.5308 C   0  0  0  0  0  0  0  0  0  0  0  0
  -11.0778   57.8478   30.1510 C   0  0  0  0  0  0  0  0  0  0  0  0
  -12.5239   58.2954   30.1168 C   0  0  0  0  0  0  0  0  0  0  0  0
  -12.6014   59.7684   30.3903 C   0  0  0  0  0  0  0  0  0  0  0  0
  -11.7996   60.5500   29.4067 C   0  0  0  0  0  0  0  0  0  0  0  0
  -12.2066   61.9469   29.1741 C   0  0  0  0  0  0  0  0  0  0  0  0
  -12.5350   62.7520   30.2933 N   0  0  0  0  0  0  0  0  0  0  0  0
  -12.3294   62.5770   31.6663 C   0  0  0  0  0  0  0  0  0  0  0  0
  -13.3446   62.6389   32.4546 O   0  0  0  0  0  0  0  0  0  0  0  0
  1  2  1  0
  2  3  1  0
  4  2  1  1
  4  5  1  0
  5  6  1  0
  6  7  2  0
  6  8  1  0
  8  9  1  6
  9 10  1  0
 10 11  2  0
 11 12  1  0
 12 13  2  0
 13 14  1  0
 14 15  1  0
 15 16  1  0
 15 17  1  0
 15 18  1  0
 13 19  1  0
 19 20  2  0
  8 21  1  0
 21 22  1  0
 22 23  1  0
 23 24  1  0
 24 25  1  0
 25 26  1  0
 26 27  1  0
 27 28  1  0
 28 29  1  0
 29 30  2  0
 29  4  1  0
 20 10  1  0
M  END
$$$$
