
     RDKit          3D

 32 37  0  0  0  0  0  0  0  0999 V2000
   16.3607   65.0460   18.2203 C   0  0  0  0  0  0  0  0  0  0  0  0
   15.6526   64.6963   17.0846 O   0  0  0  0  0  0  0  0  0  0  0  0
   14.2810   64.6531   17.3036 C   0  0  0  0  0  0  0  0  0  0  0  0
   13.4877   64.9584   16.0695 C   0  0  0  0  0  0  0  0  0  0  0  0
   13.3201   63.8346   15.2384 O   0  0  0  0  0  0  0  0  0  0  0  0
   12.6538   64.0185   14.0280 C   0  0  0  0  0  0  0  0  0  0  0  0
   12.3124   65.2824   13.5609 C   0  0  0  0  0  0  0  0  0  0  0  0
   11.6502   65.4776   12.3597 C   0  0  0  0  0  0  0  0  0  0  0  0
   11.3133   64.4039   11.5951 C   0  0  0  0  0  0  0  0  0  0  0  0
   11.6351   63.1293   12.0246 C   0  0  0  0  0  0  0  0  0  0  0  0
   11.4442   61.9077   11.5112 N   0  0  0  0  0  0  0  0  0  0  0  0
   11.9488   60.9252   12.3175 C   0  0  0  0  0  0  0  0  0  0  0  0
   11.8664   59.5131   11.9803 C   0  0  0  0  0  0  0  0  0  0  0  0
   10.8129   58.9116   11.3580 N   0  0  0  0  0  0  0  0  0  0  0  0
   10.9911   57.6473   11.1745 N   0  0  0  0  0  0  0  0  0  0  0  0
   12.2043   57.3595   11.6838 C   0  0  0  0  0  0  0  0  0  0  0  0
   12.9030   56.1906   11.7651 C   0  0  0  0  0  0  0  0  0  0  0  0
   14.1123   56.1624   12.3276 N   0  0  0  0  0  0  0  0  0  0  0  0
   14.7132   57.2502   12.8400 C   0  0  0  0  0  0  0  0  0  0  0  0
   16.0449   57.1451   13.4436 C   0  0  0  0  0  0  0  0  0  0  0  0
   16.7959   55.9991   13.3278 C   0  0  0  0  0  0  0  0  0  0  0  0
   18.0474   55.8570   13.8769 C   0  0  0  0  0  0  0  0  0  0  0  0
   18.6011   56.9022   14.5852 C   0  0  0  0  0  0  0  0  0  0  0  0
   19.7495   57.0753   15.2165 O   0  0  0  0  0  0  0  0  0  0  0  0
   19.8132   58.2655   15.7472 C   0  0  0  0  0  0  0  0  0  0  0  0
   18.6551   58.8890   15.4457 N   0  0  0  0  0  0  0  0  0  0  0  0
   17.8795   58.0663   14.7229 C   0  0  0  0  0  0  0  0  0  0  0  0
   16.6080   58.1778   14.1513 C   0  0  0  0  0  0  0  0  0  0  0  0
   14.0324   58.4425   12.7720 C   0  0  0  0  0  0  0  0  0  0  0  0
   12.7809   58.5333   12.2030 C   0  0  0  0  0  0  0  0  0  0  0  0
   12.4793   61.5748   13.3853 C   0  0  0  0  0  0  0  0  0  0  0  0
   12.2934   62.9644   13.2226 C   0  0  0  0  0  0  0  0  0  0  0  0
  1  2  1  0
  2  3  1  0
  3  4  1  0
  4  5  1  0
  5  6  1  0
  6  7  2  0
  7  8  1  0
  8  9  2  0
  9 10  1  0
 10 11  1  0
 11 12  1  0
 12 13  1  0
 13 14  2  0
 14 15  1  0
 15 16  1  0
 16 17  2  0
 17 18  1  0
 18 19  2  0
 19 20  1  0
 20 21  2  0
 21 22  1  0
 22 23  2  0
 23 24  1  0
 24 25  1  0
 25 26  2  0
 26 27  1  0
 27 28  2  0
 19 29  1  0
 29 30  2  0
 12 31  2  0
 31 32  1  0
 32  6  1  0
 32 10  2  0
 30 13  1  0
 30 16  1  0
 28 20  1  0
 27 23  1  0
M  END
$$$$
