
     RDKit          3D

 39 44  0  0  0  0  0  0  0  0999 V2000
   17.2475   94.4796   64.8315 C   0  0  0  0  0  0  0  0  0  0  0  0
   16.0678   93.7822   64.4857 O   0  0  0  0  0  0  0  0  0  0  0  0
   15.4158   94.0529   63.2909 C   0  0  0  0  0  0  0  0  0  0  0  0
   14.0859   93.6798   63.0768 C   0  0  0  0  0  0  0  0  0  0  0  0
   13.4719   93.9658   61.8775 C   0  0  0  0  0  0  0  0  0  0  0  0
   14.1086   94.6170   60.8452 C   0  0  0  0  0  0  0  0  0  0  0  0
   13.4554   94.9256   59.5653 C   0  0  0  0  0  0  0  0  0  0  0  0
   12.7076   96.1488   59.5689 N   0  0  0  0  0  0  0  0  0  0  0  0
   12.9463   97.0906   58.5211 C   0  0  0  0  0  0  0  0  0  0  0  0
   14.0970   97.1047   57.8628 N   0  0  0  0  0  0  0  0  0  0  0  0
   14.2729   98.0064   56.8866 C   0  0  0  0  0  0  0  0  0  0  0  0
   15.4831   98.0019   56.2355 C   0  0  0  0  0  0  0  0  0  0  0  0
   15.6928   98.8927   55.2733 N   0  0  0  0  0  0  0  0  0  0  0  0
   14.7435   99.8193   54.9055 C   0  0  0  0  0  0  0  0  0  0  0  0
   15.1325  100.6943   53.8646 N   0  0  0  0  0  0  0  0  0  0  0  0
   16.4282  100.6217   53.2715 C   0  0  0  0  0  0  0  0  0  0  0  0
   16.1997  100.1214   51.8350 C   0  0  0  0  0  0  0  0  0  0  0  0
   15.3205  101.1744   51.1919 C   0  0  0  0  0  0  0  0  0  0  0  0
   15.1323  101.0081   49.7877 N   0  0  0  0  0  0  0  0  0  0  0  0
   16.1893  100.3623   49.0875 C   0  0  0  0  0  0  0  0  0  0  0  0
   16.1601  100.8276   47.6556 C   0  0  0  0  0  0  0  0  0  0  0  0
   15.2974  102.0534   47.6697 C   0  0  0  0  0  0  0  0  0  0  0  0
   14.7455  102.1781   49.0709 C   0  0  0  0  0  0  0  0  0  0  0  0
   13.9888  101.3192   51.8734 C   0  0  0  0  0  0  0  0  0  0  0  0
   14.2319  101.7146   53.3357 C   0  0  0  0  0  0  0  0  0  0  0  0
   13.5281   99.8557   55.5290 C   0  0  0  0  0  0  0  0  0  0  0  0
   13.2910   98.9369   56.5299 C   0  0  0  0  0  0  0  0  0  0  0  0
   12.1245   98.9278   57.1893 N   0  0  0  0  0  0  0  0  0  0  0  0
   11.0253   99.8102   56.8699 C   0  0  0  0  0  0  0  0  0  0  0  0
   10.8683  100.9617   57.7734 C   0  0  0  0  0  0  0  0  0  0  0  0
    9.7172  101.6770   57.8416 C   0  0  0  0  0  0  0  0  0  0  0  0
    9.5435  102.7829   58.6872 C   0  0  0  0  0  0  0  0  0  0  0  0
   10.5611  103.1843   59.4921 C   0  0  0  0  0  0  0  0  0  0  0  0
   11.7405  102.4845   59.4497 C   0  0  0  0  0  0  0  0  0  0  0  0
   11.9037  101.4005   58.6173 C   0  0  0  0  0  0  0  0  0  0  0  0
   11.9751   98.0072   58.1713 C   0  0  0  0  0  0  0  0  0  0  0  0
   10.9077   97.9517   58.8256 O   0  0  0  0  0  0  0  0  0  0  0  0
   15.4384   94.9939   61.0498 C   0  0  0  0  0  0  0  0  0  0  0  0
   16.0413   94.7031   62.2512 C   0  0  0  0  0  0  0  0  0  0  0  0
  1  2  1  0
  2  3  1  0
  3  4  2  0
  4  5  1  0
  5  6  2  0
  6  7  1  0
  7  8  1  0
  8  9  1  0
  9 10  2  0
 10 11  1  0
 11 12  2  0
 12 13  1  0
 13 14  2  0
 14 15  1  0
 15 16  1  0
 16 17  1  0
 17 18  1  0
 18 19  1  0
 19 20  1  0
 20 21  1  0
 21 22  1  0
 22 23  1  0
 18 24  1  0
 24 25  1  0
 14 26  1  0
 26 27  2  0
 27 28  1  0
 28 29  1  0
 29 30  1  0
 30 31  2  0
 31 32  1  0
 32 33  2  0
 33 34  1  0
 34 35  2  0
 28 36  1  0
 36 37  2  0
  6 38  1  0
 38 39  2  0
 39  3  1  0
 36  9  1  0
 27 11  1  0
 35 30  1  0
 25 15  1  0
 23 19  1  0
M  END
$$$$
