
     RDKit          3D

 31 34  0  0  0  0  0  0  0  0999 V2000
   16.7834   58.0829   14.0902 C   0  0  0  0  0  0  0  0  0  0  0  0
   15.9212   56.9322   13.7217 C   0  0  0  0  0  0  0  0  0  0  0  0
   14.8934   57.1391   12.8813 N   0  0  0  0  0  0  0  0  0  0  0  0
   14.0615   56.1770   12.4882 C   0  0  0  0  0  0  0  0  0  0  0  0
   12.9912   56.4181   11.6083 N   0  0  0  0  0  0  0  0  0  0  0  0
   12.4824   57.7707   11.5143 C   0  0  0  0  0  0  0  0  0  0  0  0
   11.6747   58.4452   11.0223 N   0  0  0  0  0  0  0  0  0  0  0  0
   11.4474   59.7376   11.1372 C   0  0  0  0  0  0  0  0  0  0  0  0
   12.2721   60.4194   11.9545 C   0  0  0  0  0  0  0  0  0  0  0  0
   12.4354   61.7800   12.3965 C   0  0  0  0  0  0  0  0  0  0  0  0
   13.0863   62.0239   13.4555 O   0  0  0  0  0  0  0  0  0  0  0  0
   11.9097   62.8954   11.7186 N   0  0  0  0  0  0  0  0  0  0  0  0
   11.9856   64.2332   12.1797 C   0  0  0  0  0  0  0  0  0  0  0  0
   13.0816   64.8819   12.7503 C   0  0  0  0  0  0  0  0  0  0  0  0
   14.3761   64.1889   12.9481 C   0  0  0  0  0  0  0  0  0  0  0  0
   12.7082   66.1245   13.0335 N   0  0  0  0  0  0  0  0  0  0  0  0
   11.4411   66.3423   12.6896 N   0  0  0  0  0  0  0  0  0  0  0  0
   10.6954   67.5983   12.8552 C   0  0  0  0  0  0  0  0  0  0  0  0
   10.9868   65.1864   12.1637 C   0  0  0  0  0  0  0  0  0  0  0  0
    9.6004   64.9625   11.6367 C   0  0  0  0  0  0  0  0  0  0  0  0
   13.4130   59.0576   12.5554 S   0  0  0  0  0  0  0  0  0  0  0  0
   14.2850   54.9057   12.9828 C   0  0  0  0  0  0  0  0  0  0  0  0
   15.3255   54.6520   13.8449 C   0  0  0  0  0  0  0  0  0  0  0  0
   15.5693   53.3378   14.3667 N   0  0  0  0  0  0  0  0  0  0  0  0
   15.2908   52.1132   13.6438 C   0  0  0  0  0  0  0  0  0  0  0  0
   15.9309   51.0020   14.4114 C   0  0  0  0  0  0  0  0  0  0  0  0
   16.6703   51.6197   15.5630 C   0  0  1  0  0  0  0  0  0  0  0  0
   16.3875   50.8565   16.8608 C   0  0  0  0  0  0  0  0  0  0  0  0
   18.1062   51.6464   15.3524 N   0  0  0  0  0  0  0  0  0  0  0  0
   16.1188   53.0040   15.6638 C   0  0  0  0  0  0  0  0  0  0  0  0
   16.1147   55.6931   14.1852 N   0  0  0  0  0  0  0  0  0  0  0  0
  1  2  1  0
  2  3  2  0
  3  4  1  0
  4  5  1  0
  5  6  1  0
  6  7  2  0
  7  8  1  0
  8  9  2  0
  9 10  1  0
 10 11  2  0
 10 12  1  0
 12 13  1  0
 13 14  1  0
 14 15  1  0
 14 16  2  0
 16 17  1  0
 17 18  1  0
 17 19  1  0
 19 20  1  0
  9 21  1  0
  4 22  2  0
 22 23  1  0
 23 24  1  0
 24 25  1  0
 25 26  1  0
 26 27  1  0
 27 28  1  1
 27 29  1  0
 27 30  1  0
 23 31  2  0
 31  2  1  0
 21  6  1  0
 30 24  1  0
 19 13  2  0
M  END
$$$$
