
     RDKit          3D

 23 24  0  0  0  0  0  0  0  0999 V2000
   33.7873   80.9478   45.4327 C   0  0  0  0  0  0  0  0  0  0  0  0
   35.1636   81.2122   45.5874 O   0  0  0  0  0  0  0  0  0  0  0  0
   35.7125   81.2910   46.8480 C   0  0  0  0  0  0  0  0  0  0  0  0
   35.6143   80.2072   47.6907 C   0  0  0  0  0  0  0  0  0  0  0  0
   36.1602   80.2504   48.9796 C   0  0  0  0  0  0  0  0  0  0  0  0
   36.8080   81.3838   49.4282 C   0  0  0  0  0  0  0  0  0  0  0  0
   37.3707   81.4011   50.7835 C   0  0  0  0  0  0  0  0  0  0  0  0
   36.8486   82.5443   51.6275 C   0  0  0  0  0  0  0  0  0  0  0  0
   37.4650   82.5315   52.9309 C   0  0  0  0  0  0  0  0  0  0  0  0
   37.9416   82.5181   53.9852 N   0  0  0  0  0  0  0  0  0  0  0  0
   35.3741   82.3217   51.7747 C   0  0  0  0  0  0  0  0  0  0  0  0
   34.9546   81.4556   52.5818 O   0  0  0  0  0  0  0  0  0  0  0  0
   34.4269   83.0558   51.0332 N   0  0  0  0  0  0  0  0  0  0  0  0
   33.0487   82.8297   51.2689 C   0  0  0  0  0  0  0  0  0  0  0  0
   32.1201   83.3001   50.3573 C   0  0  0  0  0  0  0  0  0  0  0  0
   30.7637   83.1155   50.5242 C   0  0  0  0  0  0  0  0  0  0  0  0
   30.2828   82.4385   51.6345 C   0  0  0  0  0  0  0  0  0  0  0  0
   28.5646   82.1870   51.8761 Cl  0  0  0  0  0  0  0  0  0  0  0  0
   31.2092   81.9685   52.5451 C   0  0  0  0  0  0  0  0  0  0  0  0
   30.6067   81.1124   53.9498 Cl  0  0  0  0  0  0  0  0  0  0  0  0
   32.5642   82.1575   52.3706 C   0  0  0  0  0  0  0  0  0  0  0  0
   36.8898   82.4528   48.5600 C   0  0  0  0  0  0  0  0  0  0  0  0
   36.3575   82.4238   47.2904 C   0  0  0  0  0  0  0  0  0  0  0  0
  1  2  1  0
  2  3  1  0
  3  4  2  0
  4  5  1  0
  5  6  2  0
  6  7  1  0
  7  8  1  0
  8  9  1  0
  9 10  3  0
  8 11  1  0
 11 12  2  0
 11 13  1  0
 13 14  1  0
 14 15  2  0
 15 16  1  0
 16 17  2  0
 17 18  1  0
 17 19  1  0
 19 20  1  0
 19 21  2  0
  6 22  1  0
 22 23  2  0
 23  3  1  0
 21 14  1  0
M  END
$$$$
