
     RDKit          3D

 39 44  0  0  0  0  0  0  0  0999 V2000
   19.2318   58.9392   12.5491 C   0  0  0  0  0  0  0  0  0  0  0  0
   19.3347   57.4272   12.5646 C   0  0  0  0  0  0  0  0  0  0  0  0
   18.2371   56.8252   13.1925 O   0  0  0  0  0  0  0  0  0  0  0  0
   17.9593   55.4775   13.0584 C   0  0  0  0  0  0  0  0  0  0  0  0
   18.5633   54.6902   12.1686 N   0  0  0  0  0  0  0  0  0  0  0  0
   18.0867   53.4594   12.2858 C   0  0  0  0  0  0  0  0  0  0  0  0
   18.4268   52.3345   11.5855 C   0  0  0  0  0  0  0  0  0  0  0  0
   17.8205   51.1499   11.8773 C   0  0  0  0  0  0  0  0  0  0  0  0
   16.8782   51.1288   12.8786 C   0  0  0  0  0  0  0  0  0  0  0  0
   16.5347   52.2928   13.5940 C   0  0  0  0  0  0  0  0  0  0  0  0
   15.5940   52.1842   14.6482 N   0  0  0  0  0  0  0  0  0  0  0  0
   15.5781   50.9738   15.4333 C   0  0  0  0  0  0  0  0  0  0  0  0
   16.4184   50.0962   15.1175 O   0  0  0  0  0  0  0  0  0  0  0  0
   14.6324   50.7937   16.5297 C   0  0  0  0  0  0  0  0  0  0  0  0
   14.7453   49.6448   17.2831 C   0  0  0  0  0  0  0  0  0  0  0  0
   13.9016   49.3815   18.3363 C   0  0  0  0  0  0  0  0  0  0  0  0
   12.9268   50.3150   18.6181 C   0  0  0  0  0  0  0  0  0  0  0  0
   12.8336   51.4612   17.8466 C   0  0  0  0  0  0  0  0  0  0  0  0
   13.6804   51.6989   16.8098 N   0  0  0  0  0  0  0  0  0  0  0  0
   17.1350   53.4947   13.3083 C   0  0  0  0  0  0  0  0  0  0  0  0
   17.0535   54.7450   13.7861 N   0  0  0  0  0  0  0  0  0  0  0  0
   16.1782   55.2781   14.7764 C   0  0  0  0  0  0  0  0  0  0  0  0
   15.5260   56.5735   14.3819 C   0  0  0  0  0  0  0  0  0  0  0  0
   15.5036   56.9209   13.0217 C   0  0  0  0  0  0  0  0  0  0  0  0
   14.9252   58.0854   12.5733 C   0  0  0  0  0  0  0  0  0  0  0  0
   14.3328   58.9799   13.4408 C   0  0  0  0  0  0  0  0  0  0  0  0
   13.7042   60.2114   12.9852 C   0  0  0  0  0  0  0  0  0  0  0  0
   14.2442   61.4608   13.2711 C   0  0  0  0  0  0  0  0  0  0  0  0
   13.6690   62.6363   12.8394 C   0  0  0  0  0  0  0  0  0  0  0  0
   12.5052   62.5926   12.0888 C   0  0  0  0  0  0  0  0  0  0  0  0
   11.9641   61.3634   11.8014 C   0  0  0  0  0  0  0  0  0  0  0  0
   12.5506   60.1822   12.2410 C   0  0  0  0  0  0  0  0  0  0  0  0
   11.9459   58.8926   11.9307 C   0  0  0  0  0  0  0  0  0  0  0  0
   11.3593   57.9938   12.7066 N   0  0  0  0  0  0  0  0  0  0  0  0
   10.9540   56.9719   11.9704 N   0  0  0  0  0  0  0  0  0  0  0  0
   11.2668   57.1843   10.7089 N   0  0  0  0  0  0  0  0  0  0  0  0
   11.8745   58.3587   10.6762 N   0  0  0  0  0  0  0  0  0  0  0  0
   14.3529   58.6435   14.7766 C   0  0  0  0  0  0  0  0  0  0  0  0
   14.9418   57.4558   15.2410 C   0  0  0  0  0  0  0  0  0  0  0  0
  1  2  1  0
  2  3  1  0
  3  4  1  0
  4  5  2  0
  5  6  1  0
  6  7  2  0
  7  8  1  0
  8  9  2  0
  9 10  1  0
 10 11  1  0
 11 12  1  0
 12 13  2  0
 12 14  1  0
 14 15  2  0
 15 16  1  0
 16 17  2  0
 17 18  1  0
 18 19  2  0
 10 20  2  0
 20 21  1  0
 21 22  1  0
 22 23  1  0
 23 24  2  0
 24 25  1  0
 25 26  2  0
 26 27  1  0
 27 28  2  0
 28 29  1  0
 29 30  2  0
 30 31  1  0
 31 32  2  0
 32 33  1  0
 33 34  2  0
 34 35  1  0
 35 36  2  0
 36 37  1  0
 26 38  1  0
 38 39  2  0
 21  4  1  0
 39 23  1  0
 20  6  1  0
 32 27  1  0
 37 33  1  0
 19 14  1  0
M  END
$$$$
