
     RDKit          3D

 21 23  0  0  0  0  0  0  0  0999 V2000
  -10.6001   59.7060   31.2627 C   0  0  0  0  0  0  0  0  0  0  0  0
   -9.8782   58.5494   31.8912 C   0  0  0  0  0  0  0  0  0  0  0  0
  -10.3551   57.9611   33.0151 C   0  0  0  0  0  0  0  0  0  0  0  0
   -9.6681   56.9115   33.6000 C   0  0  0  0  0  0  0  0  0  0  0  0
   -8.4719   56.4278   33.0524 C   0  0  0  0  0  0  0  0  0  0  0  0
   -8.0372   57.0497   31.9279 C   0  0  0  0  0  0  0  0  0  0  0  0
   -8.6858   58.0951   31.3150 C   0  0  0  0  0  0  0  0  0  0  0  0
   -8.1545   58.6786   30.0535 C   0  0  0  0  0  0  0  0  0  0  0  0
   -7.2425   59.7821   30.3631 N   0  0  0  0  0  0  0  0  0  0  0  0
   -5.8578   59.6355   30.2945 C   0  0  0  0  0  0  0  0  0  0  0  0
   -5.3834   58.5133   29.9509 O   0  0  0  0  0  0  0  0  0  0  0  0
   -4.9091   60.6984   30.5979 C   0  0  0  0  0  0  0  0  0  0  0  0
   -5.1942   61.9731   31.0370 C   0  0  0  0  0  0  0  0  0  0  0  0
   -4.0150   62.5835   31.2541 N   0  0  0  0  0  0  0  0  0  0  0  0
   -2.9994   61.7364   30.9637 C   0  0  0  0  0  0  0  0  0  0  0  0
   -1.6140   61.8607   31.0237 C   0  0  0  0  0  0  0  0  0  0  0  0
   -0.8307   60.7718   30.6491 C   0  0  0  0  0  0  0  0  0  0  0  0
   -1.3917   59.5922   30.2297 C   0  0  0  0  0  0  0  0  0  0  0  0
   -2.7701   59.4416   30.1649 C   0  0  0  0  0  0  0  0  0  0  0  0
   -3.3675   58.2823   29.7474 F   0  0  0  0  0  0  0  0  0  0  0  0
   -3.5342   60.5256   30.5397 C   0  0  0  0  0  0  0  0  0  0  0  0
  1  2  1  0
  2  3  2  0
  3  4  1  0
  4  5  2  0
  5  6  1  0
  6  7  2  0
  7  8  1  0
  8  9  1  0
  9 10  1  0
 10 11  2  0
 10 12  1  0
 12 13  2  0
 13 14  1  0
 14 15  1  0
 15 16  2  0
 16 17  1  0
 17 18  2  0
 18 19  1  0
 19 20  1  0
 19 21  2  0
  7  2  1  0
 21 12  1  0
 21 15  1  0
M  END
$$$$
