
     RDKit          3D

 31 34  0  0  0  0  0  0  0  0999 V2000
   18.3999   53.0062   15.4255 C   0  0  0  0  0  0  0  0  0  0  0  0
   17.1377   52.6980   14.6716 C   0  0  1  0  0  0  0  0  0  0  0  0
   16.1836   51.9569   15.5182 C   0  0  1  0  0  0  0  0  0  0  0  0
   14.8786   51.6328   14.7901 C   0  0  0  0  0  0  0  0  0  0  0  0
   14.2944   50.4085   15.4523 C   0  0  0  0  0  0  0  0  0  0  0  0
   15.2208   50.1761   16.5850 C   0  0  1  0  0  0  0  0  0  0  0  0
   15.2000   48.8224   17.1719 C   0  0  2  0  0  0  0  0  0  0  0  0
   13.9485   48.6826   18.0006 C   0  0  0  0  0  0  0  0  0  0  0  0
   14.1355   47.9952   19.2813 C   0  0  0  0  0  0  0  0  0  0  0  0
   15.2329   47.3498   19.6435 C   0  0  0  0  0  0  0  0  0  0  0  0
   15.2802   46.7052   20.9597 C   0  0  0  0  0  0  0  0  0  0  0  0
   16.6257   46.2908   21.4438 C   0  0  1  0  0  0  0  0  0  0  0  0
   17.3554   47.4532   22.1081 C   0  0  0  0  0  0  0  0  0  0  0  0
   16.4559   45.2813   22.3891 O   0  0  0  0  0  0  0  0  0  0  0  0
   17.4764   45.7963   20.2876 C   0  0  0  0  0  0  0  0  0  0  0  0
   17.6859   46.9284   19.3098 C   0  0  0  0  0  0  0  0  0  0  0  0
   16.3640   47.3014   18.7077 C   0  0  1  0  0  0  0  0  0  0  0  0
   16.1155   46.3089   17.5762 C   0  0  0  0  0  0  0  0  0  0  0  0
   16.4151   48.6714   18.0545 C   0  0  1  0  0  0  0  0  0  0  0  0
   17.6895   48.9379   17.3407 C   0  0  0  0  0  0  0  0  0  0  0  0
   17.6564   50.4243   16.9204 C   0  0  0  0  0  0  0  0  0  0  0  0
   16.5626   50.5632   15.9347 C   0  0  2  0  0  0  0  0  0  0  0  0
   16.8610   49.6816   14.7420 C   0  0  0  0  0  0  0  0  0  0  0  0
   16.5696   53.9958   14.1109 C   0  0  1  0  0  0  0  0  0  0  0  0
   16.6234   54.9254   15.1758 O   0  0  0  0  0  0  0  0  0  0  0  0
   17.2952   54.4689   12.9172 C   0  0  0  0  0  0  0  0  0  0  0  0
   16.9919   55.8465   12.4372 C   0  0  0  0  0  0  0  0  0  0  0  0
   17.5734   56.2914   11.1472 C   0  0  0  0  0  0  0  0  0  0  0  0
   19.1124   56.3137   11.3861 C   0  0  0  0  0  0  0  0  0  0  0  0
   17.1894   57.6541   10.6877 C   0  0  0  0  0  0  0  0  0  0  0  0
   17.4302   55.2997   10.1667 O   0  0  0  0  0  0  0  0  0  0  0  0
  2  1  1  1
  2  3  1  0
  3  4  1  6
  4  5  1  0
  6  5  1  6
  6  7  1  0
  7  8  1  1
  8  9  1  0
  9 10  2  0
 10 11  1  0
 11 12  1  0
 12 13  1  1
 12 14  1  0
 12 15  1  0
 15 16  1  0
 16 17  1  0
 17 18  1  6
 17 19  1  0
 19 20  1  6
 20 21  1  0
 21 22  1  0
 22 23  1  6
  2 24  1  0
 24 25  1  1
 24 26  1  0
 26 27  1  0
 27 28  1  0
 28 29  1  0
 28 30  1  0
 28 31  1  0
 22  3  1  0
 22  6  1  0
 19  7  1  0
 17 10  1  0
M  END
$$$$
