
     RDKit          3D

 22 24  0  0  0  0  0  0  0  0999 V2000
   12.6258   97.5877   59.6038 C   0  0  0  0  0  0  0  0  0  0  0  0
   12.0977   96.4743   60.4331 C   0  0  0  0  0  0  0  0  0  0  0  0
   12.9474   95.7868   61.2945 C   0  0  0  0  0  0  0  0  0  0  0  0
   12.4484   94.7645   62.0517 C   0  0  0  0  0  0  0  0  0  0  0  0
   13.3025   94.0304   62.9557 C   0  0  0  0  0  0  0  0  0  0  0  0
   12.7538   93.0051   63.7339 C   0  0  0  0  0  0  0  0  0  0  0  0
   13.5417   92.2864   64.6056 C   0  0  0  0  0  0  0  0  0  0  0  0
   14.8927   92.5469   64.7448 C   0  0  0  0  0  0  0  0  0  0  0  0
   15.4323   93.5448   63.9889 C   0  0  0  0  0  0  0  0  0  0  0  0
   14.6308   94.2741   63.1039 C   0  0  0  0  0  0  0  0  0  0  0  0
   11.1279   94.4515   61.9366 N   0  0  0  0  0  0  0  0  0  0  0  0
   10.2871   95.0982   61.1139 C   0  0  0  0  0  0  0  0  0  0  0  0
    8.9178   94.7757   60.9927 N   0  0  0  0  0  0  0  0  0  0  0  0
    8.0014   95.7136   60.3961 C   0  0  0  0  0  0  0  0  0  0  0  0
    6.7003   94.9401   60.1419 C   0  0  0  0  0  0  0  0  0  0  0  0
    6.1428   94.5976   61.5057 C   0  0  0  0  0  0  0  0  0  0  0  0
    4.7812   94.0750   61.4298 C   0  0  0  0  0  0  0  0  0  0  0  0
    4.2627   93.3196   62.5046 N   0  0  0  0  0  0  0  0  0  0  0  0
    4.0785   94.2930   60.4230 O   0  0  0  0  0  0  0  0  0  0  0  0
    7.1095   93.7080   62.2099 C   0  0  0  0  0  0  0  0  0  0  0  0
    8.4081   93.5109   61.4590 C   0  0  0  0  0  0  0  0  0  0  0  0
   10.8113   96.1069   60.3762 N   0  0  0  0  0  0  0  0  0  0  0  0
  1  2  1  0
  2  3  2  0
  3  4  1  0
  4  5  1  0
  5  6  2  0
  6  7  1  0
  7  8  2  0
  8  9  1  0
  9 10  2  0
  4 11  2  0
 11 12  1  0
 12 13  1  0
 13 14  1  0
 14 15  1  0
 15 16  1  0
 16 17  1  0
 17 18  1  0
 17 19  2  0
 16 20  1  0
 20 21  1  0
 12 22  2  0
 22  2  1  0
 10  5  1  0
 21 13  1  0
M  END
$$$$
