
     RDKit          3D

 22 23  0  0  0  0  0  0  0  0999 V2000
   14.3517   58.1148   13.2728 C   0  0  0  0  0  0  0  0  0  0  0  0
   14.6847   56.8379   13.9748 C   0  0  0  0  0  0  0  0  0  0  0  0
   14.9401   55.7464   13.1285 O   0  0  0  0  0  0  0  0  0  0  0  0
   15.3661   54.5210   13.5909 C   0  0  0  0  0  0  0  0  0  0  0  0
   15.5405   54.3865   14.9534 C   0  0  0  0  0  0  0  0  0  0  0  0
   15.9690   53.1790   15.4925 C   0  0  0  0  0  0  0  0  0  0  0  0
   16.2314   52.0906   14.7073 C   0  0  0  0  0  0  0  0  0  0  0  0
   16.6784   50.8301   15.2707 C   0  0  0  0  0  0  0  0  0  0  0  0
   16.7827   49.8176   14.5067 O   0  0  0  0  0  0  0  0  0  0  0  0
   17.0122   50.6323   16.6179 N   0  0  0  0  0  0  0  0  0  0  0  0
   17.5039   49.3697   17.0962 C   0  0  0  0  0  0  0  0  0  0  0  0
   19.0070   49.3383   17.2117 C   0  0  0  0  0  0  0  0  0  0  0  0
   16.8180   48.9365   18.3709 C   0  0  0  0  0  0  0  0  0  0  0  0
   15.3763   48.9942   18.2519 N   0  0  0  0  0  0  0  0  0  0  0  0
   14.7495   49.3816   17.1548 N   0  0  0  0  0  0  0  0  0  0  0  0
   13.4198   49.3322   17.3297 C   0  0  0  0  0  0  0  0  0  0  0  0
   12.3776   49.6891   16.3289 C   0  0  0  0  0  0  0  0  0  0  0  0
   13.2425   48.8845   18.6203 C   0  0  0  0  0  0  0  0  0  0  0  0
   14.4977   48.6726   19.1980 C   0  0  0  0  0  0  0  0  0  0  0  0
   14.7138   48.1921   20.5827 C   0  0  0  0  0  0  0  0  0  0  0  0
   16.0579   52.2234   13.3489 C   0  0  0  0  0  0  0  0  0  0  0  0
   15.6273   53.4333   12.7935 C   0  0  0  0  0  0  0  0  0  0  0  0
  1  2  1  0
  2  3  1  0
  3  4  1  0
  4  5  2  0
  5  6  1  0
  6  7  2  0
  7  8  1  0
  8  9  2  0
  8 10  1  0
 10 11  1  0
 11 12  1  0
 11 13  1  0
 13 14  1  0
 14 15  1  0
 15 16  2  0
 16 17  1  0
 16 18  1  0
 18 19  2  0
 19 20  1  0
  7 21  1  0
 21 22  2  0
 22  4  1  0
 19 14  1  0
M  END
$$$$
