
     RDKit          3D

 29 32  0  0  0  0  0  0  0  0999 V2000
   13.1518   91.2949   64.5006 C   0  0  0  0  0  0  0  0  0  0  0  0
   11.9361   91.8714   64.0999 O   0  0  0  0  0  0  0  0  0  0  0  0
   11.9466   93.0331   63.3546 C   0  0  0  0  0  0  0  0  0  0  0  0
   13.1489   93.6968   63.0871 C   0  0  0  0  0  0  0  0  0  0  0  0
   13.1541   94.8566   62.3423 C   0  0  0  0  0  0  0  0  0  0  0  0
   14.3315   95.5338   62.0629 O   0  0  0  0  0  0  0  0  0  0  0  0
   15.5945   95.0594   62.4913 C   0  0  0  0  0  0  0  0  0  0  0  0
   11.9491   95.3359   61.8748 C   0  0  0  0  0  0  0  0  0  0  0  0
   11.9792   96.5582   61.0927 C   0  0  0  0  0  0  0  0  0  0  0  0
   11.2654   97.6708   61.4790 C   0  0  0  0  0  0  0  0  0  0  0  0
   11.2960   98.7921   60.7569 O   0  0  0  0  0  0  0  0  0  0  0  0
   11.9920   98.9066   59.6563 C   0  0  0  0  0  0  0  0  0  0  0  0
   11.9518  100.1298   58.9776 C   0  0  0  0  0  0  0  0  0  0  0  0
   12.6797  100.2464   57.8287 C   0  0  0  0  0  0  0  0  0  0  0  0
   13.4411   99.1524   57.3605 C   0  0  0  0  0  0  0  0  0  0  0  0
   14.1567   99.3282   56.1938 O   0  0  0  0  0  0  0  0  0  0  0  0
   14.9596   98.2972   55.7045 C   0  0  0  0  0  0  0  0  0  0  0  0
   13.4705   97.9719   58.0293 C   0  0  0  0  0  0  0  0  0  0  0  0
   12.7315   97.8500   59.1981 C   0  0  0  0  0  0  0  0  0  0  0  0
   12.7162   96.6712   59.9322 C   0  0  0  0  0  0  0  0  0  0  0  0
   13.4027   95.7186   59.4897 O   0  0  0  0  0  0  0  0  0  0  0  0
   12.6867  101.5035   57.0646 C   0  0  0  0  0  0  0  0  0  0  0  0
   11.6783  102.5039   57.4820 C   0  0  0  0  0  0  0  0  0  0  0  0
   11.4690  102.5438   58.9791 C   0  0  0  0  0  0  0  0  0  0  0  0
   11.1264  101.2108   59.5417 C   0  0  0  0  0  0  0  0  0  0  0  0
   10.7528   94.6676   62.1460 C   0  0  0  0  0  0  0  0  0  0  0  0
   10.7431   93.5068   62.8909 C   0  0  0  0  0  0  0  0  0  0  0  0
    9.5728   92.8346   63.1681 O   0  0  0  0  0  0  0  0  0  0  0  0
    8.2972   93.4776   63.0372 C   0  0  0  0  0  0  0  0  0  0  0  0
  1  2  1  0
  2  3  1  0
  3  4  2  0
  4  5  1  0
  5  6  1  0
  6  7  1  0
  5  8  2  0
  8  9  1  0
  9 10  2  0
 10 11  1  0
 11 12  1  0
 12 13  2  0
 13 14  1  0
 14 15  2  0
 15 16  1  0
 16 17  1  0
 15 18  1  0
 18 19  2  0
 19 20  1  0
 20 21  2  0
 14 22  1  0
 22 23  1  0
 23 24  1  0
 24 25  1  0
  8 26  1  0
 26 27  2  0
 27 28  1  0
 28 29  1  0
 27  3  1  0
 20  9  1  0
 19 12  1  0
 25 13  1  0
M  END
$$$$
