
     RDKit          3D

 33 37  0  0  0  0  0  0  0  0999 V2000
   15.6122   50.9258   17.6707 C   0  0  0  0  0  0  0  0  0  0  0  0
   16.2881   52.1540   17.2029 C   0  0  0  0  0  0  0  0  0  0  0  0
   16.7048   53.0092   18.0551 O   0  0  0  0  0  0  0  0  0  0  0  0
   16.4851   52.4057   15.8263 N   0  0  0  0  0  0  0  0  0  0  0  0
   15.5682   51.7956   14.8771 C   0  0  0  0  0  0  0  0  0  0  0  0
   15.8471   52.4362   13.5348 C   0  0  0  0  0  0  0  0  0  0  0  0
   15.9704   53.8629   13.6342 N   0  0  0  0  0  0  0  0  0  0  0  0
   15.1266   54.8046   12.9907 C   0  0  0  0  0  0  0  0  0  0  0  0
   13.9208   55.1566   13.5531 C   0  0  0  0  0  0  0  0  0  0  0  0
   13.0923   56.0637   12.9252 C   0  0  0  0  0  0  0  0  0  0  0  0
   13.4285   56.6609   11.7086 C   0  0  0  0  0  0  0  0  0  0  0  0
   12.5377   57.5776   11.1414 N   0  0  0  0  0  0  0  0  0  0  0  0
   12.4511   58.9539   11.4697 C   0  0  0  0  0  0  0  0  0  0  0  0
   11.6110   59.8130   10.8988 N   0  0  0  0  0  0  0  0  0  0  0  0
   11.5625   61.0798   11.2409 C   0  0  0  0  0  0  0  0  0  0  0  0
   12.4278   61.5612   12.2499 C   0  0  0  0  0  0  0  0  0  0  0  0
   12.3238   62.9542   12.5776 C   0  0  0  0  0  0  0  0  0  0  0  0
   11.1775   63.6845   12.1369 N   0  0  0  0  0  0  0  0  0  0  0  0
   13.1552   63.6116   13.2264 O   0  0  0  0  0  0  0  0  0  0  0  0
   13.2992   60.7114   12.8547 C   0  0  0  0  0  0  0  0  0  0  0  0
   14.1887   61.0941   13.8549 N   0  0  0  0  0  0  0  0  0  0  0  0
   14.8929   60.2401   14.7766 C   0  0  0  0  0  0  0  0  0  0  0  0
   16.0317   59.4466   14.1689 C   0  0  0  0  0  0  0  0  0  0  0  0
   16.0887   58.3099   15.1920 C   0  0  0  0  0  0  0  0  0  0  0  0
   16.1482   58.8818   16.5700 C   0  0  0  0  0  0  0  0  0  0  0  0
   14.7120   59.2608   16.9779 C   0  0  0  0  0  0  0  0  0  0  0  0
   14.0807   59.2981   15.5807 C   0  0  0  0  0  0  0  0  0  0  0  0
   14.5995   57.9232   15.1243 C   0  0  0  0  0  0  0  0  0  0  0  0
   13.2829   59.4305   12.4436 N   0  0  0  0  0  0  0  0  0  0  0  0
   14.6220   56.3081   11.1601 C   0  0  0  0  0  0  0  0  0  0  0  0
   15.4867   55.3873   11.7753 C   0  0  0  0  0  0  0  0  0  0  0  0
   17.0514   54.3616   14.4779 C   0  0  0  0  0  0  0  0  0  0  0  0
   17.5828   53.2591   15.3802 C   0  0  0  0  0  0  0  0  0  0  0  0
  1  2  1  0
  2  3  2  0
  2  4  1  0
  4  5  1  0
  5  6  1  0
  6  7  1  0
  7  8  1  0
  8  9  2  0
  9 10  1  0
 10 11  2  0
 11 12  1  0
 12 13  1  0
 13 14  2  0
 14 15  1  0
 15 16  2  0
 16 17  1  0
 17 18  1  0
 17 19  2  0
 16 20  1  0
 20 21  1  0
 21 22  1  0
 22 23  1  0
 23 24  1  0
 24 25  1  0
 25 26  1  0
 26 27  1  0
 27 28  1  0
 20 29  2  0
 11 30  1  0
 30 31  2  0
  7 32  1  0
 32 33  1  0
 33  4  1  0
 31  8  1  0
 29 13  1  0
 27 22  1  0
 28 24  1  0
M  END
$$$$
