
     RDKit          3D

 23 24  0  0  0  0  0  0  0  0999 V2000
   39.8916   80.4529   46.9035 C   0  0  0  0  0  0  0  0  0  0  0  0
   39.7297   80.2653   48.3751 C   0  0  0  0  0  0  0  0  0  0  0  0
   39.0431   79.2780   48.7487 O   0  0  0  0  0  0  0  0  0  0  0  0
   40.3426   81.1858   49.2538 N   0  0  0  0  0  0  0  0  0  0  0  0
   40.2191   81.0161   50.6662 C   0  0  0  0  0  0  0  0  0  0  0  0
   39.3550   82.1100   51.2275 C   0  0  1  0  0  0  0  0  0  0  0  0
   38.0059   82.0088   50.5486 C   0  0  0  0  0  0  0  0  0  0  0  0
   37.0561   81.7316   51.6034 N   0  0  0  0  0  0  0  0  0  0  0  0
   35.6446   81.8600   51.4843 C   0  0  0  0  0  0  0  0  0  0  0  0
   34.8738   82.2227   52.5637 C   0  0  0  0  0  0  0  0  0  0  0  0
   33.5106   82.3469   52.4545 C   0  0  0  0  0  0  0  0  0  0  0  0
   32.8636   82.1146   51.2662 C   0  0  0  0  0  0  0  0  0  0  0  0
   31.4898   82.2547   51.2143 O   0  0  0  0  0  0  0  0  0  0  0  0
   30.6870   82.0061   52.3505 C   0  0  0  0  0  0  0  0  0  0  0  0
   29.2376   81.9877   51.8552 C   0  0  1  0  0  0  0  0  0  0  0  0
   28.3922   81.4813   52.9784 C   0  0  0  0  0  0  0  0  0  0  0  0
   28.8714   83.2274   51.3878 O   0  0  0  0  0  0  0  0  0  0  0  0
   33.6266   81.7509   50.1799 C   0  0  0  0  0  0  0  0  0  0  0  0
   32.9832   81.5238   49.0138 F   0  0  0  0  0  0  0  0  0  0  0  0
   35.0116   81.6235   50.2863 C   0  0  0  0  0  0  0  0  0  0  0  0
   37.7981   81.3247   52.7265 C   0  0  0  0  0  0  0  0  0  0  0  0
   37.4175   80.5755   53.6891 O   0  0  0  0  0  0  0  0  0  0  0  0
   39.0524   81.9009   52.5947 O   0  0  0  0  0  0  0  0  0  0  0  0
  1  2  1  0
  2  3  2  0
  2  4  1  0
  4  5  1  0
  6  5  1  6
  6  7  1  0
  7  8  1  0
  8  9  1  0
  9 10  2  0
 10 11  1  0
 11 12  2  0
 12 13  1  0
 13 14  1  0
 14 15  1  0
 15 16  1  1
 15 17  1  0
 12 18  1  0
 18 19  1  0
 18 20  2  0
  8 21  1  0
 21 22  2  0
 21 23  1  0
 23  6  1  0
 20  9  1  0
M  END
$$$$
