
     RDKit          3D

 36 39  0  0  0  0  0  0  0  0999 V2000
    6.6473   91.3090   61.1678 C   0  0  0  0  0  0  0  0  0  0  0  0
    6.5844   92.6936   61.7213 C   0  0  0  0  0  0  0  0  0  0  0  0
    6.6019   93.7629   60.6981 C   0  0  0  0  0  0  0  0  0  0  0  0
    6.7385   95.1359   61.2686 C   0  0  0  0  0  0  0  0  0  0  0  0
    8.0117   95.6571   60.9599 C   0  0  0  0  0  0  0  0  0  0  0  0
    9.2402   96.1451   60.6830 C   0  0  0  0  0  0  0  0  0  0  0  0
   10.4909   96.6490   60.3772 C   0  0  0  0  0  0  0  0  0  0  0  0
   11.5882   96.1893   61.0606 N   0  0  0  0  0  0  0  0  0  0  0  0
   12.8526   96.5424   60.8617 C   0  0  0  0  0  0  0  0  0  0  0  0
   13.9457   96.0618   61.5648 N   0  0  0  0  0  0  0  0  0  0  0  0
   14.3468   94.8849   62.1481 C   0  0  0  0  0  0  0  0  0  0  0  0
   13.6606   94.3357   63.3032 C   0  0  0  0  0  0  0  0  0  0  0  0
   12.3585   93.9469   63.3412 C   0  0  0  0  0  0  0  0  0  0  0  0
   11.7575   93.4463   64.4921 C   0  0  0  0  0  0  0  0  0  0  0  0
   12.5426   93.3588   65.6245 C   0  0  0  0  0  0  0  0  0  0  0  0
   13.8663   93.7394   65.6387 C   0  0  0  0  0  0  0  0  0  0  0  0
   14.3766   94.2138   64.4738 C   0  0  0  0  0  0  0  0  0  0  0  0
   13.0377   97.4817   59.8369 C   0  0  0  0  0  0  0  0  0  0  0  0
   14.1564   98.0770   59.3545 N   0  0  0  0  0  0  0  0  0  0  0  0
   13.7730   98.9059   58.3790 C   0  0  0  0  0  0  0  0  0  0  0  0
   12.4400   98.8764   58.2014 N   0  0  0  0  0  0  0  0  0  0  0  0
   11.6972   99.6211   57.2760 C   0  0  2  0  0  0  0  0  0  0  0  0
   12.3664   99.8574   56.0435 O   0  0  0  0  0  0  0  0  0  0  0  0
   11.5647  100.7280   55.3750 C   0  0  2  0  0  0  0  0  0  0  0  0
   12.3337  101.7679   54.6270 C   0  0  0  0  0  0  0  0  0  0  0  0
   13.7388  101.6520   54.4924 N   0  0  0  0  0  0  0  0  0  0  0  0
   14.3580  100.6063   53.7813 C   0  0  0  0  0  0  0  0  0  0  0  0
   13.9367   99.3996   54.0037 O   0  0  0  0  0  0  0  0  0  0  0  0
   15.4507  100.7299   52.7886 C   0  0  0  0  0  0  0  0  0  0  0  0
   14.7919  101.6661   51.3964 Cl  0  0  0  0  0  0  0  0  0  0  0  0
   10.7514  101.5194   56.4686 C   0  0  1  0  0  0  0  0  0  0  0  0
    9.5066  100.8424   56.5397 O   0  0  0  0  0  0  0  0  0  0  0  0
   11.5469  101.1127   57.6711 C   0  0  1  0  0  0  0  0  0  0  0  0
   10.9044  101.2953   58.8551 O   0  0  0  0  0  0  0  0  0  0  0  0
   11.9692   97.9783   59.1174 C   0  0  0  0  0  0  0  0  0  0  0  0
   10.7205   97.5604   59.3932 N   0  0  0  0  0  0  0  0  0  0  0  0
  1  2  1  0
  2  3  1  0
  3  4  1  0
  4  5  1  0
  5  6  3  0
  6  7  1  0
  7  8  2  0
  8  9  1  0
  9 10  1  0
 10 11  1  0
 11 12  1  0
 12 13  2  0
 13 14  1  0
 14 15  2  0
 15 16  1  0
 16 17  2  0
  9 18  2  0
 18 19  1  0
 19 20  2  0
 20 21  1  0
 22 21  1  1
 22 23  1  0
 23 24  1  0
 24 25  1  1
 25 26  1  0
 26 27  1  0
 27 28  2  0
 27 29  1  0
 29 30  1  0
 24 31  1  0
 31 32  1  1
 31 33  1  0
 33 34  1  1
 21 35  1  0
 35 36  2  0
 36  7  1  0
 17 12  1  0
 35 18  1  0
 33 22  1  0
M  END
$$$$
