
     RDKit          3D

 25 28  0  0  0  0  0  0  0  0999 V2000
   41.8085   81.2982   56.8988 C   0  0  0  0  0  0  0  0  0  0  0  0
   40.9217   81.3745   55.7092 C   0  0  0  0  0  0  0  0  0  0  0  0
   40.9730   82.4482   54.8419 C   0  0  0  0  0  0  0  0  0  0  0  0
   40.1595   82.5367   53.7346 C   0  0  0  0  0  0  0  0  0  0  0  0
   39.2460   81.5449   53.4387 C   0  0  0  0  0  0  0  0  0  0  0  0
   38.3929   81.6064   52.3046 N   0  0  0  0  0  0  0  0  0  0  0  0
   36.9397   81.3938   52.3779 C   0  0  0  0  0  0  0  0  0  0  0  0
   36.4785   82.2254   51.2107 C   0  0  0  0  0  0  0  0  0  0  0  0
   35.1076   81.8798   50.7684 C   0  0  0  0  0  0  0  0  0  0  0  0
   34.9131   81.7489   49.5320 O   0  0  0  0  0  0  0  0  0  0  0  0
   34.0208   81.6909   51.6369 N   0  0  0  0  0  0  0  0  0  0  0  0
   32.6515   81.5993   51.1255 C   0  0  0  0  0  0  0  0  0  0  0  0
   31.5415   81.6360   51.3753 N   0  0  0  0  0  0  0  0  0  0  0  0
   30.4655   81.5071   50.6347 C   0  0  0  0  0  0  0  0  0  0  0  0
   29.0242   81.5788   51.1066 C   0  0  0  0  0  0  0  0  0  0  0  0
   28.8407   81.4520   52.6349 C   0  0  0  0  0  0  0  0  0  0  0  0
   28.6114   82.7409   51.9265 C   0  0  0  0  0  0  0  0  0  0  0  0
   30.7980   81.2803   49.2702 C   0  0  0  0  0  0  0  0  0  0  0  0
   32.5133   81.2815   49.2305 S   0  0  0  0  0  0  0  0  0  0  0  0
   37.5105   81.8729   50.1597 C   0  0  0  0  0  0  0  0  0  0  0  0
   38.7552   81.8691   50.9608 C   0  0  0  0  0  0  0  0  0  0  0  0
   39.9067   82.0627   50.5232 O   0  0  0  0  0  0  0  0  0  0  0  0
   39.1947   80.4631   54.3130 C   0  0  0  0  0  0  0  0  0  0  0  0
   38.2031   79.3871   53.9913 C   0  0  0  0  0  0  0  0  0  0  0  0
   40.0101   80.3748   55.4225 C   0  0  0  0  0  0  0  0  0  0  0  0
  1  2  1  0
  2  3  2  0
  3  4  1  0
  4  5  2  0
  5  6  1  0
  6  7  1  0
  7  8  1  0
  8  9  1  0
  9 10  2  0
  9 11  1  0
 11 12  1  0
 12 13  2  0
 13 14  1  0
 14 15  1  0
 15 16  1  0
 16 17  1  0
 14 18  2  0
 18 19  1  0
  8 20  1  0
 20 21  1  0
 21 22  2  0
  5 23  1  0
 23 24  1  0
 23 25  2  0
 25  2  1  0
 21  6  1  0
 19 12  1  0
 17 15  1  0
M  END
$$$$
