
     RDKit          3D

 18 19  0  0  0  0  0  0  0  0999 V2000
   15.9271   56.6292   13.1797 C   0  0  0  0  0  0  0  0  0  0  0  0
   16.3209   55.2667   12.7280 C   0  0  0  0  0  0  0  0  0  0  0  0
   16.2170   54.1846   13.5644 C   0  0  0  0  0  0  0  0  0  0  0  0
   16.5790   52.8839   13.1733 C   0  0  0  0  0  0  0  0  0  0  0  0
   16.4707   51.8364   13.9989 O   0  0  0  0  0  0  0  0  0  0  0  0
   16.6956   51.5774   15.3262 C   0  0  0  0  0  0  0  0  0  0  0  0
   16.2991   50.2819   15.8902 C   0  0  0  0  0  0  0  0  0  0  0  0
   15.2132   50.2284   16.7893 N   0  0  0  0  0  0  0  0  0  0  0  0
   15.7278   50.2190   18.1467 C   0  0  0  0  0  0  0  0  0  0  0  0
   16.1944   48.8659   18.5822 C   0  0  0  0  0  0  0  0  0  0  0  0
   15.6616   47.8333   17.8209 O   0  0  0  0  0  0  0  0  0  0  0  0
   14.3312   48.0554   17.4870 C   0  0  0  0  0  0  0  0  0  0  0  0
   13.4625   48.1872   18.7369 C   0  0  0  0  0  0  0  0  0  0  0  0
   14.1954   49.2756   16.5945 C   0  0  0  0  0  0  0  0  0  0  0  0
   17.0472   52.7644   11.8881 C   0  0  0  0  0  0  0  0  0  0  0  0
   17.1489   53.8647   11.0501 C   0  0  0  0  0  0  0  0  0  0  0  0
   16.7948   55.1219   11.4409 C   0  0  0  0  0  0  0  0  0  0  0  0
   16.9231   56.1984   10.5384 N   0  0  0  0  0  0  0  0  0  0  0  0
  1  2  1  0
  2  3  2  0
  3  4  1  0
  4  5  1  0
  5  6  1  0
  6  7  1  0
  7  8  1  0
  8  9  1  0
  9 10  1  0
 10 11  1  0
 11 12  1  0
 12 13  1  0
 12 14  1  0
  4 15  2  0
 15 16  1  0
 16 17  2  0
 17 18  1  0
 17  2  1  0
 14  8  1  0
M  END
$$$$
