
     RDKit          3D

 26 28  0  0  0  0  0  0  0  0999 V2000
   -7.1587   61.2702   30.8206 O   0  0  0  0  0  0  0  0  0  0  0  0
   -7.3158   60.0373   30.7690 C   0  0  0  0  0  0  0  0  0  0  0  0
   -6.2076   59.1845   30.3130 C   0  0  0  0  0  0  0  0  0  0  0  0
   -4.9032   59.8528   30.5308 C   0  0  0  0  0  0  0  0  0  0  0  0
   -4.8415   61.1452   31.0110 C   0  0  0  0  0  0  0  0  0  0  0  0
   -3.6101   61.7771   31.2169 C   0  0  0  0  0  0  0  0  0  0  0  0
   -3.5549   63.4146   31.8258 Cl  0  0  0  0  0  0  0  0  0  0  0  0
   -2.4465   61.0941   30.9343 C   0  0  0  0  0  0  0  0  0  0  0  0
   -2.5065   59.7971   30.4524 C   0  0  0  0  0  0  0  0  0  0  0  0
   -1.2891   59.0301   30.1373 C   0  0  0  0  0  0  0  0  0  0  0  0
   -0.1918   59.5681   30.7589 F   0  0  0  0  0  0  0  0  0  0  0  0
   -1.4046   57.7188   30.5910 F   0  0  0  0  0  0  0  0  0  0  0  0
   -1.1505   58.9993   28.7633 F   0  0  0  0  0  0  0  0  0  0  0  0
   -3.7382   59.1733   30.2496 C   0  0  0  0  0  0  0  0  0  0  0  0
   -8.5385   59.4559   31.1415 N   0  0  0  0  0  0  0  0  0  0  0  0
   -8.6582   58.0206   31.2328 C   0  0  0  0  0  0  0  0  0  0  0  0
   -9.0101   57.6361   32.6518 C   0  0  0  0  0  0  0  0  0  0  0  0
   -9.6815   58.7728   33.3909 C   0  0  0  0  0  0  0  0  0  0  0  0
  -10.5633   59.5383   32.4491 C   0  0  0  0  0  0  0  0  0  0  0  0
   -9.6866   60.2866   31.4365 C   0  0  0  0  0  0  0  0  0  0  0  0
  -10.5612   60.4939   30.2169 C   0  0  0  0  0  0  0  0  0  0  0  0
  -11.1459   61.7889   30.3311 N   0  0  0  0  0  0  0  0  0  0  0  0
  -10.3504   62.8606   29.8017 C   0  0  0  0  0  0  0  0  0  0  0  0
  -10.9070   64.0674   30.5415 C   0  0  0  0  0  0  0  0  0  0  0  0
  -11.0941   63.5399   31.9428 C   0  0  0  0  0  0  0  0  0  0  0  0
  -11.3712   62.0886   31.7304 C   0  0  0  0  0  0  0  0  0  0  0  0
  1  2  2  0
  2  3  1  0
  3  4  1  0
  4  5  2  0
  5  6  1  0
  6  7  1  0
  6  8  2  0
  8  9  1  0
  9 10  1  0
 10 11  1  0
 10 12  1  0
 10 13  1  0
  9 14  2  0
  2 15  1  0
 15 16  1  0
 16 17  1  0
 17 18  1  0
 18 19  1  0
 19 20  1  0
 20 21  1  0
 21 22  1  0
 22 23  1  0
 23 24  1  0
 24 25  1  0
 25 26  1  0
 14  4  1  0
 20 15  1  0
 26 22  1  0
M  END
$$$$
