
     RDKit          3D

 14 14  0  0  0  0  0  0  0  0999 V2000
   -3.8261   66.4508   31.7582 C   0  0  0  0  0  0  0  0  0  0  0  0
   -3.7530   65.4049   30.8057 N   0  0  0  0  0  0  0  0  0  0  0  0
   -3.1109   65.7198   29.5762 C   0  0  0  0  0  0  0  0  0  0  0  0
   -3.4719   63.8586   31.4163 S   0  0  0  0  0  6  0  0  0  0  0  0
   -1.9993   63.6840   31.7046 O   0  0  0  0  0  0  0  0  0  0  0  0
   -4.1804   63.6511   32.7352 O   0  0  0  0  0  0  0  0  0  0  0  0
   -3.9972   62.6947   30.3279 N   0  0  0  0  0  0  0  0  0  0  0  0
   -4.3352   61.4234   30.8322 C   0  0  0  0  0  0  0  0  0  0  0  0
   -3.1645   60.5092   30.6119 C   0  0  0  0  0  0  0  0  0  0  0  0
   -1.9297   60.8311   30.0787 C   0  0  0  0  0  0  0  0  0  0  0  0
   -1.1414   59.6931   30.0525 C   0  0  0  0  0  0  0  0  0  0  0  0
   -1.9259   58.6716   30.5823 C   0  0  0  0  0  0  0  0  0  0  0  0
   -3.1158   59.1993   30.9001 N   0  0  0  0  0  0  0  0  0  0  0  0
   -4.2390   58.4598   31.4896 C   0  0  0  0  0  0  0  0  0  0  0  0
  1  2  1  0
  2  3  1  0
  2  4  1  0
  4  5  2  0
  4  6  2  0
  4  7  1  0
  7  8  1  0
  8  9  1  0
  9 10  2  0
 10 11  1  0
 11 12  2  0
 12 13  1  0
 13 14  1  0
 13  9  1  0
M  END
$$$$
