
     RDKit          3D

 36 40  0  0  0  0  0  0  0  0999 V2000
   13.2545   46.5886   17.4909 C   0  0  0  0  0  0  0  0  0  0  0  0
   12.3597   47.6505   17.4929 O   0  0  0  0  0  0  0  0  0  0  0  0
   12.3732   48.7907   16.7553 C   0  0  0  0  0  0  0  0  0  0  0  0
   11.3066   49.4181   16.1600 C   0  0  0  0  0  0  0  0  0  0  0  0
   11.3857   50.5789   15.4233 C   0  0  0  0  0  0  0  0  0  0  0  0
   12.6174   51.1976   15.2419 C   0  0  0  0  0  0  0  0  0  0  0  0
   12.9066   52.2949   14.5922 N   0  0  0  0  0  0  0  0  0  0  0  0
   13.9224   52.8369   14.4290 C   0  0  0  0  0  0  0  0  0  0  0  0
   14.5585   53.9912   13.8245 N   0  0  0  0  0  0  0  0  0  0  0  0
   15.9662   54.1330   13.8307 C   0  0  0  0  0  0  0  0  0  0  0  0
   16.7727   53.1243   14.2834 N   0  0  0  0  0  0  0  0  0  0  0  0
   18.1190   53.2591   14.2908 C   0  0  0  0  0  0  0  0  0  0  0  0
   18.7439   54.4006   13.8505 C   0  0  0  0  0  0  0  0  0  0  0  0
   20.2064   54.5782   13.8529 C   0  0  0  0  0  0  0  0  0  0  0  0
   20.7460   55.3081   14.9434 N   0  0  0  0  0  0  0  0  0  0  0  0
   20.5241   54.8261   16.2508 C   0  0  0  0  0  0  0  0  0  0  0  0
   21.7343   54.1051   16.8395 C   0  0  0  0  0  0  0  0  0  0  0  0
   22.8509   54.9861   16.6371 N   0  0  0  0  0  0  0  0  0  0  0  0
   23.6040   55.4245   17.7405 C   0  0  0  0  0  0  0  0  0  0  0  0
   23.2730   54.9660   19.1332 C   0  0  0  0  0  0  0  0  0  0  0  0
   24.5870   56.2145   17.6403 O   0  0  0  0  0  0  0  0  0  0  0  0
   23.1739   55.4016   15.3036 C   0  0  0  0  0  0  0  0  0  0  0  0
   21.9400   56.0393   14.7061 C   0  0  0  0  0  0  0  0  0  0  0  0
   17.9129   55.4257   13.3900 C   0  0  0  0  0  0  0  0  0  0  0  0
   16.5464   55.3010   13.3774 C   0  0  0  0  0  0  0  0  0  0  0  0
   15.6803   56.3706   12.9018 C   0  0  0  0  0  0  0  0  0  0  0  0
   14.3510   56.2419   12.7675 N   0  0  0  0  0  0  0  0  0  0  0  0
   13.5991   57.2741   12.3144 C   0  0  0  0  0  0  0  0  0  0  0  0
   12.1350   57.1292   12.1645 C   0  0  0  0  0  0  0  0  0  0  0  0
   14.1628   58.4495   11.9889 N   0  0  0  0  0  0  0  0  0  0  0  0
   15.4887   58.6006   12.1151 C   0  0  0  0  0  0  0  0  0  0  0  0
   16.0796   59.8620   11.7638 N   0  0  0  0  0  0  0  0  0  0  0  0
   16.1937   57.5722   12.5604 N   0  0  0  0  0  0  0  0  0  0  0  0
   15.0527   51.6526   15.3903 S   0  0  0  0  0  0  0  0  0  0  0  0
   13.7083   50.5754   15.8370 C   0  0  0  0  0  0  0  0  0  0  0  0
   13.6179   49.4109   16.5740 C   0  0  0  0  0  0  0  0  0  0  0  0
  1  2  1  0
  2  3  1  0
  3  4  2  0
  4  5  1  0
  5  6  2  0
  6  7  1  0
  7  8  2  0
  8  9  1  0
  9 10  1  0
 10 11  2  0
 11 12  1  0
 12 13  2  0
 13 14  1  0
 14 15  1  0
 15 16  1  0
 16 17  1  0
 17 18  1  0
 18 19  1  0
 19 20  1  0
 19 21  2  0
 18 22  1  0
 22 23  1  0
 13 24  1  0
 24 25  2  0
 25 26  1  0
 26 27  2  0
 27 28  1  0
 28 29  1  0
 28 30  2  0
 30 31  1  0
 31 32  1  0
 31 33  2  0
  8 34  1  0
 34 35  1  0
 35 36  2  0
 36  3  1  0
 35  6  1  0
 25 10  1  0
 33 26  1  0
 23 15  1  0
M  END
$$$$
