
     RDKit          3D

 42 47  0  0  0  0  0  0  0  0999 V2000
   15.6740   94.7105   63.6845 C   0  0  0  0  0  0  0  0  0  0  0  0
   14.4527   95.0777   62.9637 N   0  0  0  0  0  0  0  0  0  0  0  0
   14.4517   95.9592   61.9670 C   0  0  0  0  0  0  0  0  0  0  0  0
   13.1383   96.1072   61.4701 C   0  0  0  0  0  0  0  0  0  0  0  0
   12.8238   96.9801   60.3512 C   0  0  0  0  0  0  0  0  0  0  0  0
   11.6161   97.0764   59.7332 C   0  0  0  0  0  0  0  0  0  0  0  0
   11.4341   97.9995   58.6924 C   0  0  0  0  0  0  0  0  0  0  0  0
    9.8134   98.1073   57.9051 S   0  0  0  0  0  0  0  0  0  0  0  0
    9.7947   99.5470   56.8734 C   0  0  0  0  0  0  0  0  0  0  0  0
    9.0368   99.5990   55.7440 C   0  0  0  0  0  0  0  0  0  0  0  0
    9.0547  100.6963   54.9872 N   0  0  0  0  0  0  0  0  0  0  0  0
    9.8009  101.7765   55.2929 C   0  0  0  0  0  0  0  0  0  0  0  0
    9.7974  102.9311   54.4596 N   0  0  0  0  0  0  0  0  0  0  0  0
   10.5561  101.7008   56.4363 C   0  0  0  0  0  0  0  0  0  0  0  0
   10.5698  100.6187   57.2275 N   0  0  0  0  0  0  0  0  0  0  0  0
   12.4437   98.7831   58.3088 N   0  0  0  0  0  0  0  0  0  0  0  0
   13.6381   98.7032   58.9065 C   0  0  0  0  0  0  0  0  0  0  0  0
   14.7327   99.5420   58.4946 N   0  0  0  0  0  0  0  0  0  0  0  0
   14.8227   99.8870   57.1222 C   0  0  0  0  0  0  0  0  0  0  0  0
   15.9050  100.5501   56.5858 C   0  0  0  0  0  0  0  0  0  0  0  0
   15.9614  100.8472   55.2186 C   0  0  0  0  0  0  0  0  0  0  0  0
   14.9322  100.4803   54.3838 C   0  0  0  0  0  0  0  0  0  0  0  0
   15.0011  100.7932   52.9666 C   0  0  0  0  0  0  0  0  0  0  0  0
   14.1351  101.5950   52.4636 O   0  0  0  0  0  0  0  0  0  0  0  0
   15.9571  100.2861   52.0681 N   0  0  0  0  0  0  0  0  0  0  0  0
   15.7864   99.0231   51.3581 C   0  0  0  0  0  0  0  0  0  0  0  0
   15.8898   99.2341   49.8621 C   0  0  0  0  0  0  0  0  0  0  0  0
   16.0565  100.6248   49.5433 N   0  0  0  0  0  0  0  0  0  0  0  0
   17.4082  101.0453   49.7228 C   0  0  0  0  0  0  0  0  0  0  0  0
   18.3322  100.6166   48.6064 C   0  0  0  0  0  0  0  0  0  0  0  0
   17.7799  100.6656   47.3535 O   0  0  0  0  0  0  0  0  0  0  0  0
   16.4919  100.1843   47.2519 C   0  0  0  0  0  0  0  0  0  0  0  0
   15.6284  100.9701   48.2091 C   0  0  0  0  0  0  0  0  0  0  0  0
   13.8607   99.8245   54.9147 C   0  0  0  0  0  0  0  0  0  0  0  0
   13.7977   99.5246   56.2809 C   0  0  0  0  0  0  0  0  0  0  0  0
   13.7968   97.8220   59.8932 N   0  0  0  0  0  0  0  0  0  0  0  0
   12.3583   95.2744   62.2120 C   0  0  0  0  0  0  0  0  0  0  0  0
   11.0160   94.9610   62.2023 C   0  0  0  0  0  0  0  0  0  0  0  0
   10.5554   94.0364   63.1129 C   0  0  0  0  0  0  0  0  0  0  0  0
   11.3608   93.4041   64.0345 C   0  0  0  0  0  0  0  0  0  0  0  0
   12.6962   93.7206   64.0355 C   0  0  0  0  0  0  0  0  0  0  0  0
   13.1967   94.6407   63.1403 C   0  0  0  0  0  0  0  0  0  0  0  0
  1  2  1  0
  2  3  1  0
  3  4  2  0
  4  5  1  0
  5  6  2  0
  6  7  1  0
  7  8  1  0
  8  9  1  0
  9 10  2  0
 10 11  1  0
 11 12  2  0
 12 13  1  0
 12 14  1  0
 14 15  2  0
  7 16  2  0
 16 17  1  0
 17 18  1  0
 18 19  1  0
 19 20  2  0
 20 21  1  0
 21 22  2  0
 22 23  1  0
 23 24  2  0
 23 25  1  0
 25 26  1  0
 26 27  1  0
 27 28  1  0
 28 29  1  0
 29 30  1  0
 30 31  1  0
 31 32  1  0
 32 33  1  0
 22 34  1  0
 34 35  2  0
 17 36  2  0
  4 37  1  0
 37 38  2  0
 38 39  1  0
 39 40  2  0
 40 41  1  0
 41 42  2  0
 42  2  1  0
 36  5  1  0
 42 37  1  0
 15  9  1  0
 35 19  1  0
 33 28  1  0
M  END
$$$$
