
     RDKit          3D

 20 22  0  0  0  0  0  0  0  0999 V2000
   11.8734  100.2320   57.9974 C   0  0  0  0  0  0  0  0  0  0  0  0
   12.1868   99.3553   59.1668 C   0  0  0  0  0  0  0  0  0  0  0  0
   11.3778   98.4705   59.7768 N   0  0  0  0  0  0  0  0  0  0  0  0
   12.0342   97.8785   60.7917 C   0  0  0  0  0  0  0  0  0  0  0  0
   11.5319   96.8257   61.7497 C   0  0  0  0  0  0  0  0  0  0  0  0
   10.6304   95.9333   60.9556 C   0  0  0  0  0  0  0  0  0  0  0  0
   10.3301   94.7241   61.8466 C   0  0  0  0  0  0  0  0  0  0  0  0
   11.6529   94.0015   61.9962 C   0  0  0  0  0  0  0  0  0  0  0  0
   12.5407   94.7959   62.7542 N   0  0  0  0  0  0  0  0  0  0  0  0
   12.6882   94.4666   64.1304 C   0  0  0  0  0  0  0  0  0  0  0  0
   12.8521   92.9997   64.3768 C   0  0  0  0  0  0  0  0  0  0  0  0
   11.9248   92.2022   65.0373 C   0  0  0  0  0  0  0  0  0  0  0  0
   10.6461   92.6927   65.5912 C   0  0  0  0  0  0  0  0  0  0  0  0
   12.4417   90.9762   65.0440 N   0  0  0  0  0  0  0  0  0  0  0  0
   13.5875   90.9862   64.4469 O   0  0  0  0  0  0  0  0  0  0  0  0
   13.8951   92.1810   64.0189 C   0  0  0  0  0  0  0  0  0  0  0  0
   15.1314   92.6041   63.2820 C   0  0  0  0  0  0  0  0  0  0  0  0
   12.6966   96.1469   62.3818 C   0  0  0  0  0  0  0  0  0  0  0  0
   13.2619   98.4274   60.7815 N   0  0  0  0  0  0  0  0  0  0  0  0
   13.3321   99.3066   59.8033 O   0  0  0  0  0  0  0  0  0  0  0  0
  1  2  1  0
  2  3  2  0
  3  4  1  0
  4  5  1  0
  5  6  1  0
  6  7  1  0
  7  8  1  0
  8  9  1  0
  9 10  1  0
 10 11  1  0
 11 12  1  0
 12 13  1  0
 12 14  2  0
 14 15  1  0
 15 16  1  0
 16 17  1  0
  9 18  1  0
  4 19  2  0
 19 20  1  0
 20  2  1  0
 18  5  1  0
 16 11  2  0
M  END
$$$$
