
     RDKit          3D

 22 24  0  0  0  0  0  0  0  0999 V2000
   13.6889   63.2324   12.4445 C   0  0  0  0  0  0  0  0  0  0  0  0
   13.9700   61.9268   13.1791 C   0  0  0  0  0  0  0  0  0  0  0  0
   13.6796   60.8123   12.2003 C   0  0  0  0  0  0  0  0  0  0  0  0
   14.0804   59.5175   12.7454 N   0  0  0  0  0  0  0  0  0  0  0  0
   15.3496   59.3168   13.3428 C   0  0  0  0  0  0  0  0  0  0  0  0
   16.0193   60.2991   13.7350 O   0  0  0  0  0  0  0  0  0  0  0  0
   15.9219   57.9563   13.5224 C   0  0  0  0  0  0  0  0  0  0  0  0
   16.8668   57.8695   14.6771 C   0  0  0  0  0  0  0  0  0  0  0  0
   16.5782   57.5758   12.2069 C   0  0  0  0  0  0  0  0  0  0  0  0
   16.4179   56.1405   11.8920 C   0  0  0  0  0  0  0  0  0  0  0  0
   16.5916   55.0781   12.7528 C   0  0  0  0  0  0  0  0  0  0  0  0
   16.3384   53.9000   12.0390 C   0  0  0  0  0  0  0  0  0  0  0  0
   16.3972   52.5038   12.5361 C   0  0  0  0  0  0  0  0  0  0  0  0
   16.0384   54.2839   10.8403 O   0  0  0  0  0  0  0  0  0  0  0  0
   16.0749   55.5842   10.7187 N   0  0  0  0  0  0  0  0  0  0  0  0
   14.8316   57.0749   13.7720 O   0  0  0  0  0  0  0  0  0  0  0  0
   13.5986   57.2130   13.2081 C   0  0  0  0  0  0  0  0  0  0  0  0
   12.7402   56.1350   13.1556 C   0  0  0  0  0  0  0  0  0  0  0  0
   11.5097   56.3344   12.5751 C   0  0  0  0  0  0  0  0  0  0  0  0
   11.1144   57.5479   12.0557 C   0  0  0  0  0  0  0  0  0  0  0  0
   11.9718   58.5821   12.1205 N   0  0  0  0  0  0  0  0  0  0  0  0
   13.1892   58.4102   12.6874 C   0  0  0  0  0  0  0  0  0  0  0  0
  1  2  1  0
  2  3  1  0
  3  4  1  0
  4  5  1  0
  5  6  2  0
  5  7  1  0
  7  8  1  0
  7  9  1  0
  9 10  1  0
 10 11  1  0
 11 12  2  0
 12 13  1  0
 12 14  1  0
 14 15  1  0
  7 16  1  0
 16 17  1  0
 17 18  2  0
 18 19  1  0
 19 20  2  0
 20 21  1  0
 21 22  2  0
 22  4  1  0
 15 10  2  0
 22 17  1  0
M  END
$$$$
