
     RDKit          3D

 33 36  0  0  0  0  0  0  0  0999 V2000
  -10.4845   57.4926   34.1473 C   0  0  0  0  0  0  0  0  0  0  0  0
  -10.1876   57.7709   32.7543 N   0  0  0  0  0  0  0  0  0  0  0  0
  -10.9859   57.5286   31.6981 C   0  0  0  0  0  0  0  0  0  0  0  0
  -12.1511   57.0092   31.7283 O   0  0  0  0  0  0  0  0  0  0  0  0
  -10.3863   57.9137   30.5677 N   0  0  0  0  0  0  0  0  0  0  0  0
  -10.8838   57.8376   29.2063 C   0  0  0  0  0  0  0  0  0  0  0  0
   -9.1701   58.4192   30.8835 C   0  0  0  0  0  0  0  0  0  0  0  0
   -8.1523   58.9506   30.1286 C   0  0  0  0  0  0  0  0  0  0  0  0
   -6.9590   59.4189   30.7060 C   0  0  0  0  0  0  0  0  0  0  0  0
   -5.9225   59.9581   29.8105 C   0  0  0  0  0  0  0  0  0  0  0  0
   -4.9584   60.8261   30.4235 N   0  0  0  0  0  0  0  0  0  0  0  0
   -3.8036   60.1864   31.0480 C   0  0  0  0  0  0  0  0  0  0  0  0
   -2.9518   59.4747   30.0200 C   0  0  0  0  0  0  0  0  0  0  0  0
   -2.2781   58.2153   30.3442 C   0  0  0  0  0  0  0  0  0  0  0  0
   -1.4702   59.4708   30.3542 C   0  0  0  0  0  0  0  0  0  0  0  0
   -5.1415   62.2231   30.4421 C   0  0  0  0  0  0  0  0  0  0  0  0
   -6.2828   62.6237   30.0412 O   0  0  0  0  0  0  0  0  0  0  0  0
   -4.0818   63.1097   30.8881 C   0  0  0  0  0  0  0  0  0  0  0  0
   -4.3143   64.5807   30.6624 C   0  0  0  0  0  0  0  0  0  0  0  0
   -4.9049   65.0935   31.9945 C   0  0  0  0  0  0  0  0  0  0  0  0
   -5.3270   64.8911   29.6223 C   0  0  0  0  0  0  0  0  0  0  0  0
   -3.0112   65.2760   30.5330 C   0  0  0  0  0  0  0  0  0  0  0  0
   -2.4771   66.0361   31.6753 C   0  0  0  0  0  0  0  0  0  0  0  0
   -1.3207   66.8928   31.0860 C   0  0  0  0  0  0  0  0  0  0  0  0
   -3.3451   66.9714   32.2981 N   0  0  0  0  0  0  0  0  0  0  0  0
   -3.0783   66.9704   33.6848 C   0  0  0  0  0  0  0  0  0  0  0  0
   -3.5187   67.7175   34.6021 O   0  0  0  0  0  0  0  0  0  0  0  0
   -2.1452   65.9043   33.9642 N   0  0  0  0  0  0  0  0  0  0  0  0
   -1.8462   65.2578   32.7388 C   0  0  0  0  0  0  0  0  0  0  0  0
   -1.1696   64.2195   32.6056 O   0  0  0  0  0  0  0  0  0  0  0  0
   -6.8784   59.3105   32.0651 C   0  0  0  0  0  0  0  0  0  0  0  0
   -7.9121   58.7695   32.8465 C   0  0  0  0  0  0  0  0  0  0  0  0
   -9.0490   58.3288   32.2479 C   0  0  0  0  0  0  0  0  0  0  0  0
  1  2  1  0
  2  3  1  0
  3  4  2  0
  3  5  1  0
  5  6  1  0
  5  7  1  0
  7  8  2  0
  8  9  1  0
  9 10  1  0
 10 11  1  0
 11 12  1  0
 12 13  1  0
 13 14  1  0
 14 15  1  0
 11 16  1  0
 16 17  2  0
 16 18  1  0
 18 19  1  0
 19 20  1  0
 19 21  1  0
 19 22  1  0
 22 23  1  0
 23 24  1  0
 23 25  1  0
 25 26  1  0
 26 27  2  0
 26 28  1  0
 28 29  1  0
 29 30  2  0
  9 31  2  0
 31 32  1  0
 32 33  2  0
 33  2  1  0
 33  7  1  0
 15 13  1  0
 29 23  1  0
M  END
$$$$
