
     RDKit          3D

 25 28  0  0  0  0  0  0  0  0999 V2000
   11.2922   98.7575   54.6798 C   0  0  0  0  0  0  0  0  0  0  0  0
   11.8416   98.7982   56.0115 N   0  0  0  0  0  0  0  0  0  0  0  0
   12.9850   99.3955   56.4041 C   0  0  0  0  0  0  0  0  0  0  0  0
   13.9293  100.1379   55.5728 C   0  0  0  0  0  0  0  0  0  0  0  0
   15.1638  100.5501   56.0863 C   0  0  0  0  0  0  0  0  0  0  0  0
   16.0526  101.2552   55.2857 C   0  0  0  0  0  0  0  0  0  0  0  0
   15.7409  101.5485   54.0170 N   0  0  0  0  0  0  0  0  0  0  0  0
   14.5500  101.1692   53.4689 C   0  0  0  0  0  0  0  0  0  0  0  0
   13.6583  100.4659   54.2605 C   0  0  0  0  0  0  0  0  0  0  0  0
   13.1118   99.1856   57.7289 N   0  0  0  0  0  0  0  0  0  0  0  0
   12.0962   98.4842   58.1726 N   0  0  0  0  0  0  0  0  0  0  0  0
   11.8232   98.0274   59.5362 C   0  0  0  0  0  0  0  0  0  0  0  0
   13.0558   97.3018   60.0216 C   0  0  0  0  0  0  0  0  0  0  0  0
   12.8313   96.6754   61.3145 N   0  0  0  0  0  0  0  0  0  0  0  0
   13.1965   95.3383   61.6038 C   0  0  0  0  0  0  0  0  0  0  0  0
   13.4562   94.5444   60.6408 O   0  0  0  0  0  0  0  0  0  0  0  0
   13.2915   94.8165   62.9644 C   0  0  0  0  0  0  0  0  0  0  0  0
   14.4803   93.8583   63.1611 C   0  0  0  0  0  0  0  0  0  0  0  0
   13.8849   92.9625   64.2328 C   0  0  0  0  0  0  0  0  0  0  0  0
   13.4517   93.8311   65.3690 C   0  0  0  0  0  0  0  0  0  0  0  0
   12.0638   94.3907   65.0112 C   0  0  0  0  0  0  0  0  0  0  0  0
   12.0857   94.1402   63.5061 C   0  0  0  0  0  0  0  0  0  0  0  0
   12.5356   92.6720   63.5555 C   0  0  0  0  0  0  0  0  0  0  0  0
   11.3126   98.2445   57.1163 C   0  0  0  0  0  0  0  0  0  0  0  0
   10.2389   97.5957   57.1553 O   0  0  0  0  0  0  0  0  0  0  0  0
  1  2  1  0
  2  3  1  0
  3  4  1  0
  4  5  2  0
  5  6  1  0
  6  7  2  0
  7  8  1  0
  8  9  2  0
  3 10  2  0
 10 11  1  0
 11 12  1  0
 12 13  1  0
 13 14  1  0
 14 15  1  0
 15 16  2  0
 15 17  1  0
 17 18  1  0
 18 19  1  0
 19 20  1  0
 20 21  1  0
 21 22  1  0
 22 23  1  0
 11 24  1  0
 24 25  2  0
 24  2  1  0
  9  4  1  0
 22 17  1  0
 23 19  1  0
M  END
$$$$
