
     RDKit          3D

 21 22  0  0  0  0  0  0  0  0999 V2000
   -3.2786   69.8717   30.8950 C   0  0  0  0  0  0  0  0  0  0  0  0
   -3.6653   68.5573   31.5081 C   0  0  0  0  0  0  0  0  0  0  0  0
   -3.2354   68.4123   32.9452 C   0  0  0  0  0  0  0  0  0  0  0  0
   -3.1210   67.3834   30.6832 C   0  0  0  0  0  0  0  0  0  0  0  0
   -3.2723   66.1664   31.5662 C   0  0  0  0  0  0  0  0  0  0  0  0
   -3.4799   64.6312   30.6507 S   0  0  0  0  0  0  0  0  0  0  0  0
   -4.1209   63.2912   31.6578 C   0  0  0  0  0  0  0  0  0  0  0  0
   -3.6714   61.9873   30.9819 C   0  0  0  0  0  0  0  0  0  0  0  0
   -2.9463   61.1025   31.9684 C   0  0  0  0  0  0  0  0  0  0  0  0
   -2.4557   59.8971   31.2342 C   0  0  0  0  0  0  0  0  0  0  0  0
   -1.1078   59.8279   30.9320 C   0  0  0  0  0  0  0  0  0  0  0  0
   -0.6046   58.7439   30.2594 C   0  0  0  0  0  0  0  0  0  0  0  0
   -1.4486   57.7144   29.8812 C   0  0  0  0  0  0  0  0  0  0  0  0
   -2.7873   57.7632   30.1708 C   0  0  0  0  0  0  0  0  0  0  0  0
   -3.2555   58.8645   30.8456 C   0  0  0  0  0  0  0  0  0  0  0  0
   -5.5806   63.2337   31.7097 C   0  0  0  0  0  0  0  0  0  0  0  0
   -6.2420   63.6014   32.8686 C   0  0  0  0  0  0  0  0  0  0  0  0
   -7.6193   63.5577   32.9503 C   0  0  0  0  0  0  0  0  0  0  0  0
   -8.3867   63.1430   31.8706 C   0  0  0  0  0  0  0  0  0  0  0  0
   -7.7517   62.7693   30.6980 C   0  0  0  0  0  0  0  0  0  0  0  0
   -6.3814   62.8295   30.6653 C   0  0  0  0  0  0  0  0  0  0  0  0
  1  2  1  0
  2  3  1  0
  2  4  1  0
  4  5  1  0
  5  6  1  0
  6  7  1  0
  7  8  1  0
  8  9  1  0
  9 10  1  0
 10 11  2  0
 11 12  1  0
 12 13  2  0
 13 14  1  0
 14 15  2  0
  7 16  1  0
 16 17  2  0
 17 18  1  0
 18 19  2  0
 19 20  1  0
 20 21  2  0
 15 10  1  0
 21 16  1  0
M  END
$$$$
