
     RDKit          3D

 33 38  0  0  0  0  0  0  0  0999 V2000
   18.3588   56.0484   14.5485 C   0  0  0  0  0  0  0  0  0  0  0  0
   16.9627   55.9212   13.9247 C   0  0  0  0  0  0  0  0  0  0  0  0
   16.1652   55.0923   14.8777 C   0  0  0  0  0  0  0  0  0  0  0  0
   16.6023   54.8809   16.0377 O   0  0  0  0  0  0  0  0  0  0  0  0
   14.9158   54.5286   14.5125 N   0  0  0  0  0  0  0  0  0  0  0  0
   14.0754   53.8548   15.4934 C   0  0  0  0  0  0  0  0  0  0  0  0
   14.7816   52.6677   16.0951 C   0  0  0  0  0  0  0  0  0  0  0  0
   14.4702   51.3207   15.5183 C   0  0  0  0  0  0  0  0  0  0  0  0
   13.9365   51.6922   16.8763 C   0  0  0  0  0  0  0  0  0  0  0  0
   17.1664   55.1792   12.6512 C   0  0  0  0  0  0  0  0  0  0  0  0
   17.4588   53.8261   12.6418 C   0  0  0  0  0  0  0  0  0  0  0  0
   17.6321   53.2201   11.4127 C   0  0  0  0  0  0  0  0  0  0  0  0
   17.5253   53.9050   10.2239 C   0  0  0  0  0  0  0  0  0  0  0  0
   17.2344   55.2496   10.2448 C   0  0  0  0  0  0  0  0  0  0  0  0
   17.0572   55.8753   11.4664 C   0  0  0  0  0  0  0  0  0  0  0  0
   16.3969   57.2197   13.7345 N   0  0  0  0  0  0  0  0  0  0  0  0
   16.9641   58.3714   14.0959 N   0  0  0  0  0  0  0  0  0  0  0  0
   16.1604   59.3874   13.7666 C   0  0  0  0  0  0  0  0  0  0  0  0
   15.0507   58.8307   13.1765 C   0  0  0  0  0  0  0  0  0  0  0  0
   15.2011   57.4438   13.1556 C   0  0  0  0  0  0  0  0  0  0  0  0
   14.2128   56.7170   12.6141 N   0  0  0  0  0  0  0  0  0  0  0  0
   13.0896   57.2611   12.0931 C   0  0  0  0  0  0  0  0  0  0  0  0
   12.0569   56.4659   11.5250 N   0  0  0  0  0  0  0  0  0  0  0  0
   12.9085   58.5995   12.0953 N   0  0  0  0  0  0  0  0  0  0  0  0
   11.9383   59.4132   11.6684 N   0  0  0  0  0  0  0  0  0  0  0  0
   12.2659   60.6952   11.9192 C   0  0  0  0  0  0  0  0  0  0  0  0
   11.5109   61.9104   11.6262 C   0  0  0  0  0  0  0  0  0  0  0  0
   11.8609   63.1898   12.0122 C   0  0  0  0  0  0  0  0  0  0  0  0
   10.8854   64.0696   11.5400 C   0  0  0  0  0  0  0  0  0  0  0  0
    9.9855   63.2551   10.8836 C   0  0  0  0  0  0  0  0  0  0  0  0
   10.4028   62.0182   10.9688 O   0  0  0  0  0  0  0  0  0  0  0  0
   13.4856   60.6216   12.5211 N   0  0  0  0  0  0  0  0  0  0  0  0
   13.8837   59.3518   12.6321 C   0  0  0  0  0  0  0  0  0  0  0  0
  1  2  1  0
  2  3  1  0
  3  4  2  0
  3  5  1  0
  5  6  1  0
  6  7  1  0
  7  8  1  0
  8  9  1  0
  2 10  1  0
 10 11  2  0
 11 12  1  0
 12 13  2  0
 13 14  1  0
 14 15  2  0
  2 16  1  0
 16 17  1  0
 17 18  2  0
 18 19  1  0
 19 20  2  0
 20 21  1  0
 21 22  2  0
 22 23  1  0
 22 24  1  0
 24 25  1  0
 25 26  2  0
 26 27  1  0
 27 28  2  0
 28 29  1  0
 29 30  2  0
 30 31  1  0
 26 32  1  0
 32 33  2  0
  9  7  1  0
 15 10  1  0
 20 16  1  0
 33 24  1  0
 33 19  1  0
 31 27  1  0
M  END
$$$$
