
     RDKit          3D

 32 36  0  0  0  0  0  0  0  0999 V2000
   10.6178  101.6763   58.1760 C   0  0  0  0  0  0  0  0  0  0  0  0
   10.8620  100.3639   58.7989 C   0  0  0  0  0  0  0  0  0  0  0  0
   10.5974  100.0878   60.1452 C   0  0  0  0  0  0  0  0  0  0  0  0
   10.8107   98.9092   60.7327 C   0  0  0  0  0  0  0  0  0  0  0  0
   11.3477   97.7493   60.0274 C   0  0  0  0  0  0  0  0  0  0  0  0
   11.6309   96.4743   60.5608 C   0  0  0  0  0  0  0  0  0  0  0  0
   12.3376   95.5669   60.0536 O   0  0  0  0  0  0  0  0  0  0  0  0
   11.0661   96.1139   61.8573 N   0  0  0  0  0  0  0  0  0  0  0  0
   11.4009   94.9137   62.4848 C   0  0  0  0  0  0  0  0  0  0  0  0
   12.1311   93.9476   61.9371 C   0  0  0  0  0  0  0  0  0  0  0  0
   12.6391   92.8061   62.3670 C   0  0  0  0  0  0  0  0  0  0  0  0
   13.4257   91.9810   61.7024 C   0  0  0  0  0  0  0  0  0  0  0  0
   14.2170   91.1221   61.0363 N   0  0  0  0  0  0  0  0  0  0  0  0
   12.3346   92.5332   63.7848 C   0  0  0  0  0  0  0  0  0  0  0  0
   11.5855   93.4955   64.3796 C   0  0  0  0  0  0  0  0  0  0  0  0
   11.1042   94.6440   63.8380 N   0  0  0  0  0  0  0  0  0  0  0  0
   11.5735   98.1288   58.7000 C   0  0  0  0  0  0  0  0  0  0  0  0
   11.3734   99.2981   58.0937 C   0  0  0  0  0  0  0  0  0  0  0  0
   11.7514   99.4819   56.7081 N   0  0  0  0  0  0  0  0  0  0  0  0
   13.0607   99.6798   56.2504 C   0  0  0  0  0  0  0  0  0  0  0  0
   12.8667   99.9316   54.8895 C   0  0  0  0  0  0  0  0  0  0  0  0
   13.9828  100.2705   53.9732 C   0  0  0  0  0  0  0  0  0  0  0  0
   13.6553  100.4873   52.6034 C   0  0  0  0  0  0  0  0  0  0  0  0
   14.5187  100.9226   51.7164 N   0  0  0  0  0  0  0  0  0  0  0  0
   15.8724  101.1970   52.1313 C   0  0  0  0  0  0  0  0  0  0  0  0
   16.8682  101.6368   51.4326 N   0  0  0  0  0  0  0  0  0  0  0  0
   17.9718  101.7469   52.2961 C   0  0  0  0  0  0  0  0  0  0  0  0
   17.4994  101.3281   53.5582 C   0  0  0  0  0  0  0  0  0  0  0  0
   16.1658  100.9802   53.4416 C   0  0  0  0  0  0  0  0  0  0  0  0
   15.1899  100.5320   54.2466 N   0  0  0  0  0  0  0  0  0  0  0  0
   11.6283   99.8755   54.5962 N   0  0  0  0  0  0  0  0  0  0  0  0
   10.9516   99.5986   55.7139 N   0  0  0  0  0  0  0  0  0  0  0  0
  1  2  1  0
  2  3  2  0
  3  4  1  0
  4  5  2  0
  5  6  1  0
  6  7  2  0
  6  8  1  0
  8  9  1  0
  9 10  2  0
 10 11  1  0
 11 12  1  0
 12 13  3  0
 11 14  2  0
 14 15  1  0
 15 16  2  0
  5 17  1  0
 17 18  2  0
 18 19  1  0
 19 20  1  0
 20 21  2  0
 21 22  1  0
 22 23  2  0
 23 24  1  0
 24 25  2  0
 25 26  1  0
 26 27  1  0
 27 28  2  0
 28 29  1  0
 29 30  2  0
 21 31  1  0
 31 32  2  0
 18  2  1  0
 32 19  1  0
 16  9  1  0
 30 22  1  0
 29 25  1  0
M  END
$$$$
