
     RDKit          3D

 26 28  0  0  0  0  0  0  0  0999 V2000
   10.1250   95.3638   59.3201 C   0  0  0  0  0  0  0  0  0  0  0  0
   10.4264   96.5694   60.1941 C   0  0  0  0  0  0  0  0  0  0  0  0
   11.4105   97.4322   59.6318 N   0  0  0  0  0  0  0  0  0  0  0  0
   11.1004   98.6759   58.9587 C   0  0  0  0  0  0  0  0  0  0  0  0
    9.9206   99.0258   59.0377 O   0  0  0  0  0  0  0  0  0  0  0  0
   12.1759   99.3957   58.2606 C   0  0  0  0  0  0  0  0  0  0  0  0
   11.6188  100.6757   57.7453 C   0  0  0  0  0  0  0  0  0  0  0  0
   11.1732  101.6768   57.3213 N   0  0  0  0  0  0  0  0  0  0  0  0
   12.7772   98.6910   57.1157 C   0  0  0  0  0  0  0  0  0  0  0  0
   13.7760   99.4686   56.3791 C   0  0  0  0  0  0  0  0  0  0  0  0
   13.5165  100.2874   55.3095 C   0  0  0  0  0  0  0  0  0  0  0  0
   14.5356  100.9778   54.6371 C   0  0  0  0  0  0  0  0  0  0  0  0
   15.8500  100.8604   55.0290 C   0  0  0  0  0  0  0  0  0  0  0  0
   16.1053  100.0379   56.1039 C   0  0  0  0  0  0  0  0  0  0  0  0
   15.1185   99.3553   56.7719 C   0  0  0  0  0  0  0  0  0  0  0  0
   10.9250   96.0289   61.4872 C   0  0  0  0  0  0  0  0  0  0  0  0
   10.4317   96.3011   62.7556 C   0  0  0  0  0  0  0  0  0  0  0  0
   11.1591   95.6119   63.6525 N   0  0  0  0  0  0  0  0  0  0  0  0
   12.0792   94.9261   62.9979 N   0  0  0  0  0  0  0  0  0  0  0  0
   13.0745   94.0505   63.5622 C   0  0  0  0  0  0  0  0  0  0  0  0
   14.2877   93.9008   62.8816 C   0  0  0  0  0  0  0  0  0  0  0  0
   15.2828   93.0835   63.3610 C   0  0  0  0  0  0  0  0  0  0  0  0
   15.0996   92.3981   64.5216 C   0  0  0  0  0  0  0  0  0  0  0  0
   13.8864   92.5471   65.2032 C   0  0  0  0  0  0  0  0  0  0  0  0
   12.8890   93.3677   64.7204 C   0  0  0  0  0  0  0  0  0  0  0  0
   11.9408   95.1743   61.7034 N   0  0  0  0  0  0  0  0  0  0  0  0
  1  2  1  0
  2  3  1  0
  3  4  1  0
  4  5  2  0
  4  6  1  0
  6  7  1  0
  7  8  3  0
  6  9  1  0
  9 10  1  0
 10 11  2  0
 11 12  1  0
 12 13  2  0
 13 14  1  0
 14 15  2  0
  2 16  1  0
 16 17  1  0
 17 18  2  0
 18 19  1  0
 19 20  1  0
 20 21  2  0
 21 22  1  0
 22 23  2  0
 23 24  1  0
 24 25  2  0
 19 26  1  0
 15 10  1  0
 26 16  2  0
 25 20  1  0
M  END
$$$$
