
     RDKit          3D

 34 38  0  0  0  0  0  0  0  0999 V2000
   34.7711   82.9758   41.0083 C   0  0  0  0  0  0  0  0  0  0  0  0
   34.3744   83.3153   42.3345 N   0  0  0  0  0  0  0  0  0  0  0  0
   34.7792   84.6147   42.7676 C   0  0  0  0  0  0  0  0  0  0  0  0
   35.6870   84.5278   44.0134 C   0  0  0  0  0  0  0  0  0  0  0  0
   36.6538   83.4290   43.7725 C   0  0  0  0  0  0  0  0  0  0  0  0
   37.8643   83.3326   44.6091 C   0  0  0  0  0  0  0  0  0  0  0  0
   37.7547   83.0149   45.9930 N   0  0  0  0  0  0  0  0  0  0  0  0
   38.7283   82.5078   46.8611 C   0  0  0  0  0  0  0  0  0  0  0  0
   39.8496   82.1952   46.4199 O   0  0  0  0  0  0  0  0  0  0  0  0
   38.5252   82.3064   48.3118 C   0  0  0  0  0  0  0  0  0  0  0  0
   39.5721   82.1905   49.1973 C   0  0  0  0  0  0  0  0  0  0  0  0
   39.4007   82.0004   50.5691 C   0  0  0  0  0  0  0  0  0  0  0  0
   38.1276   81.9233   51.0786 C   0  0  0  0  0  0  0  0  0  0  0  0
   37.0755   82.0380   50.1991 C   0  0  0  0  0  0  0  0  0  0  0  0
   37.2554   82.2272   48.8328 C   0  0  0  0  0  0  0  0  0  0  0  0
   35.9557   81.9242   50.9353 N   0  0  0  0  0  0  0  0  0  0  0  0
   36.3153   81.7437   52.2401 C   0  0  0  0  0  0  0  0  0  0  0  0
   35.2889   81.5588   53.2835 C   0  0  0  0  0  0  0  0  0  0  0  0
   33.9299   81.8224   52.7758 C   0  0  0  0  0  0  0  0  0  0  0  0
   32.8352   81.7675   53.6440 C   0  0  0  0  0  0  0  0  0  0  0  0
   31.5564   82.0136   53.2581 C   0  0  0  0  0  0  0  0  0  0  0  0
   31.2956   82.3400   51.9323 C   0  0  0  0  0  0  0  0  0  0  0  0
   29.9112   82.6137   51.4815 C   0  0  0  0  0  0  0  0  0  0  0  0
   29.9031   82.9705   50.1480 F   0  0  0  0  0  0  0  0  0  0  0  0
   29.3629   83.6822   52.2032 F   0  0  0  0  0  0  0  0  0  0  0  0
   29.1181   81.4785   51.5979 F   0  0  0  0  0  0  0  0  0  0  0  0
   32.3621   82.4003   51.0569 C   0  0  0  0  0  0  0  0  0  0  0  0
   33.6655   82.1462   51.4656 C   0  0  0  0  0  0  0  0  0  0  0  0
   37.6499   81.7415   52.3457 N   0  0  0  0  0  0  0  0  0  0  0  0
   38.4619   81.5801   53.5333 C   0  0  0  0  0  0  0  0  0  0  0  0
   38.9978   82.8636   54.1218 C   0  0  0  0  0  0  0  0  0  0  0  0
   37.9918   81.9643   54.8598 C   0  0  0  0  0  0  0  0  0  0  0  0
   35.8287   82.1272   43.9497 C   0  0  0  0  0  0  0  0  0  0  0  0
   34.4801   82.2833   43.3036 C   0  0  0  0  0  0  0  0  0  0  0  0
  1  2  1  0
  2  3  1  0
  3  4  1  0
  4  5  1  0
  5  6  1  0
  6  7  1  0
  7  8  1  0
  8  9  2  0
  8 10  1  0
 10 11  2  0
 11 12  1  0
 12 13  2  0
 13 14  1  0
 14 15  2  0
 14 16  1  0
 16 17  2  0
 17 18  1  0
 18 19  1  0
 19 20  2  0
 20 21  1  0
 21 22  2  0
 22 23  1  0
 23 24  1  0
 23 25  1  0
 23 26  1  0
 22 27  1  0
 27 28  2  0
 17 29  1  0
 29 30  1  0
 30 31  1  0
 31 32  1  0
  5 33  1  0
 33 34  1  0
 34  2  1  0
 15 10  1  0
 28 19  1  0
 32 30  1  0
 29 13  1  0
M  END
$$$$
