
     RDKit          3D

 19 20  0  0  0  0  0  0  0  0999 V2000
   17.8763   53.5248   13.1389 O   0  0  0  0  0  0  0  0  0  0  0  0
   16.7717   54.0975   13.0691 C   0  0  0  0  0  0  0  0  0  0  0  0
   15.6569   53.4461   13.6818 N   0  0  0  0  0  0  0  0  0  0  0  0
   15.7370   52.1603   14.2990 C   0  0  0  0  0  0  0  0  0  0  0  0
   16.0635   52.1964   15.7555 C   0  0  0  0  0  0  0  0  0  0  0  0
   15.2278   51.2510   16.4583 N   0  0  0  0  0  0  0  0  0  0  0  0
   15.7475   50.2799   17.3528 C   0  0  0  0  0  0  0  0  0  0  0  0
   17.0627   50.1795   17.5585 N   0  0  0  0  0  0  0  0  0  0  0  0
   17.5717   49.2664   18.4014 C   0  0  0  0  0  0  0  0  0  0  0  0
   16.7525   48.3988   19.0852 C   0  0  0  0  0  0  0  0  0  0  0  0
   15.4047   48.4768   18.8962 C   0  0  0  0  0  0  0  0  0  0  0  0
   14.9067   49.4216   18.0266 C   0  0  0  0  0  0  0  0  0  0  0  0
   13.4277   49.4748   17.8474 C   0  0  0  0  0  0  0  0  0  0  0  0
   12.9503   50.6815   18.3048 F   0  0  0  0  0  0  0  0  0  0  0  0
   13.0651   49.3659   16.5227 F   0  0  0  0  0  0  0  0  0  0  0  0
   12.8445   48.4892   18.6335 F   0  0  0  0  0  0  0  0  0  0  0  0
   16.5380   55.3886   12.4042 C   0  0  0  0  0  0  0  0  0  0  0  0
   17.3497   55.5797   11.0827 C   0  0  0  0  0  0  0  0  0  0  0  0
   17.6861   56.3321   12.2978 C   0  0  0  0  0  0  0  0  0  0  0  0
  1  2  2  0
  2  3  1  0
  3  4  1  0
  4  5  1  0
  5  6  1  0
  6  7  1  0
  7  8  2  0
  8  9  1  0
  9 10  2  0
 10 11  1  0
 11 12  2  0
 12 13  1  0
 13 14  1  0
 13 15  1  0
 13 16  1  0
  2 17  1  0
 17 18  1  0
 18 19  1  0
 12  7  1  0
 19 17  1  0
M  END
$$$$
