
     RDKit          3D

 22 24  0  0  0  0  0  0  0  0999 V2000
   38.3426   79.8766   53.2968 C   0  0  0  0  0  0  0  0  0  0  0  0
   37.1244   80.7278   53.1794 C   0  0  0  0  0  0  0  0  0  0  0  0
   36.9637   81.6714   52.2393 N   0  0  0  0  0  0  0  0  0  0  0  0
   35.7577   82.2614   52.4043 C   0  0  0  0  0  0  0  0  0  0  0  0
   35.2260   83.3537   51.5514 C   0  0  0  0  0  0  0  0  0  0  0  0
   34.7304   82.8312   50.2965 N   0  0  0  0  0  0  0  0  0  0  0  0
   33.3868   82.3693   50.1742 C   0  0  0  0  0  0  0  0  0  0  0  0
   32.4762   82.5021   51.2050 C   0  0  0  0  0  0  0  0  0  0  0  0
   31.1800   82.0505   51.0721 C   0  0  0  0  0  0  0  0  0  0  0  0
   30.1941   82.1910   52.1798 C   0  0  0  0  0  0  0  0  0  0  0  0
   28.9268   82.0465   51.6586 F   0  0  0  0  0  0  0  0  0  0  0  0
   30.4259   81.2480   53.1600 F   0  0  0  0  0  0  0  0  0  0  0  0
   30.3018   83.4345   52.7411 F   0  0  0  0  0  0  0  0  0  0  0  0
   30.8223   81.4595   49.8705 C   0  0  0  0  0  0  0  0  0  0  0  0
   31.7189   81.3193   48.8319 C   0  0  0  0  0  0  0  0  0  0  0  0
   31.3855   80.7324   47.6220 C   0  0  0  0  0  0  0  0  0  0  0  0
   32.2987   80.6023   46.5959 C   0  0  0  0  0  0  0  0  0  0  0  0
   33.5836   81.0705   46.7789 C   0  0  0  0  0  0  0  0  0  0  0  0
   33.9103   81.6415   47.9546 N   0  0  0  0  0  0  0  0  0  0  0  0
   33.0121   81.7717   48.9691 C   0  0  0  0  0  0  0  0  0  0  0  0
   35.1999   81.6491   53.4651 N   0  0  0  0  0  0  0  0  0  0  0  0
   36.0441   80.7374   53.9043 O   0  0  0  0  0  0  0  0  0  0  0  0
  1  2  1  0
  2  3  2  0
  3  4  1  0
  4  5  1  0
  5  6  1  0
  6  7  1  0
  7  8  2  0
  8  9  1  0
  9 10  1  0
 10 11  1  0
 10 12  1  0
 10 13  1  0
  9 14  2  0
 14 15  1  0
 15 16  2  0
 16 17  1  0
 17 18  2  0
 18 19  1  0
 19 20  2  0
  4 21  2  0
 21 22  1  0
 22  2  1  0
 20  7  1  0
 20 15  1  0
M  END
$$$$
