
     RDKit          3D

 25 28  0  0  0  0  0  0  0  0999 V2000
   40.7895   81.0144   51.1929 C   0  0  0  0  0  0  0  0  0  0  0  0
   40.0663   82.1528   52.3947 S   0  0  0  0  0  0  0  0  0  0  0  0
   38.2992   82.1687   52.1960 C   0  0  0  0  0  0  0  0  0  0  0  0
   37.7706   81.9991   50.9529 C   0  0  0  0  0  0  0  0  0  0  0  0
   36.3971   82.0128   50.8069 C   0  0  0  0  0  0  0  0  0  0  0  0
   35.5221   82.1857   51.8245 C   0  0  0  0  0  0  0  0  0  0  0  0
   34.0776   82.2324   51.7623 C   0  0  0  0  0  0  0  0  0  0  0  0
   33.3218   82.3626   52.9147 N   0  0  0  0  0  0  0  0  0  0  0  0
   32.0273   82.3965   52.6172 C   0  0  0  0  0  0  0  0  0  0  0  0
   30.8896   82.5134   53.4181 C   0  0  0  0  0  0  0  0  0  0  0  0
   29.6317   82.5244   52.8695 C   0  0  0  0  0  0  0  0  0  0  0  0
   29.4959   82.4170   51.4922 C   0  0  0  0  0  0  0  0  0  0  0  0
   27.9049   82.4265   50.7453 Cl  0  0  0  0  0  0  0  0  0  0  0  0
   30.6504   82.3045   50.7540 C   0  0  0  0  0  0  0  0  0  0  0  0
   31.8889   82.2932   51.2894 N   0  0  0  0  0  0  0  0  0  0  0  0
   33.1628   82.1931   50.7586 C   0  0  0  0  0  0  0  0  0  0  0  0
   33.3423   82.1422   49.3766 N   0  0  0  0  0  0  0  0  0  0  0  0
   32.9208   81.1377   48.4298 C   0  0  0  0  0  0  0  0  0  0  0  0
   34.1017   80.5426   47.7741 C   0  0  0  0  0  0  0  0  0  0  0  0
   34.2825   80.6901   46.3169 C   0  0  0  0  0  0  0  0  0  0  0  0
   33.1340   81.1540   45.5065 C   0  0  0  0  0  0  0  0  0  0  0  0
   32.5173   82.3319   46.2383 C   0  0  0  0  0  0  0  0  0  0  0  0
   31.9108   81.7779   47.4816 C   0  0  0  0  0  0  0  0  0  0  0  0
   36.1110   82.3564   53.0886 C   0  0  0  0  0  0  0  0  0  0  0  0
   37.4700   82.3504   53.2856 C   0  0  0  0  0  0  0  0  0  0  0  0
  1  2  1  0
  2  3  1  0
  3  4  2  0
  4  5  1  0
  5  6  2  0
  6  7  1  0
  7  8  1  0
  8  9  2  0
  9 10  1  0
 10 11  2  0
 11 12  1  0
 12 13  1  0
 12 14  2  0
 14 15  1  0
 15 16  1  0
 16 17  1  0
 17 18  1  0
 18 19  1  0
 19 20  1  0
 20 21  1  0
 21 22  1  0
 22 23  1  0
  6 24  1  0
 24 25  2  0
 25  3  1  0
 16  7  2  0
 23 18  1  0
 15  9  1  0
M  END
$$$$
