
     RDKit          3D

 34 37  0  0  0  0  0  0  0  0999 V2000
    9.2439   88.7141   63.4812 N   0  0  0  0  0  0  0  0  0  0  0  0
    9.1996   89.9728   64.1584 C   0  0  0  0  0  0  0  0  0  0  0  0
    8.3606   90.1855   65.0646 O   0  0  0  0  0  0  0  0  0  0  0  0
   10.1710   91.0569   63.7805 C   0  0  2  0  0  0  0  0  0  0  0  0
   11.1814   91.1357   64.8968 C   0  0  0  0  0  0  0  0  0  0  0  0
   12.2592   92.0106   64.5139 N   0  0  0  0  0  0  0  0  0  0  0  0
   12.9754   91.7819   63.3233 C   0  0  0  0  0  0  0  0  0  0  0  0
   12.5872   90.9965   62.4317 O   0  0  0  0  0  0  0  0  0  0  0  0
   14.2412   92.4919   63.1033 C   0  0  0  0  0  0  0  0  0  0  0  0
   14.5328   93.7749   63.4939 C   0  0  0  0  0  0  0  0  0  0  0  0
   15.8128   94.0412   63.0943 C   0  0  0  0  0  0  0  0  0  0  0  0
   16.7218   95.5071   63.3138 Cl  0  0  0  0  0  0  0  0  0  0  0  0
   16.2717   92.9073   62.4666 C   0  0  0  0  0  0  0  0  0  0  0  0
   15.3184   91.9878   62.4800 N   0  0  0  0  0  0  0  0  0  0  0  0
    9.4353   92.2986   63.6268 N   0  0  0  0  0  0  0  0  0  0  0  0
    9.9198   93.4944   64.2884 C   0  0  0  0  0  0  0  0  0  0  0  0
   10.2540   94.4726   63.1502 C   0  0  0  0  0  0  0  0  0  0  0  0
    9.0450   95.1678   62.6452 C   0  0  0  0  0  0  0  0  0  0  0  0
    9.4046   96.4926   62.0739 C   0  0  0  0  0  0  0  0  0  0  0  0
   10.8011   96.5591   61.5301 C   0  0  0  0  0  0  0  0  0  0  0  0
   10.9416   97.9082   60.8991 C   0  0  0  0  0  0  0  0  0  0  0  0
   11.7131   98.0186   59.7653 C   0  0  0  0  0  0  0  0  0  0  0  0
   11.8961   99.2196   59.1207 C   0  0  0  0  0  0  0  0  0  0  0  0
   11.2879  100.3387   59.6292 C   0  0  0  0  0  0  0  0  0  0  0  0
   10.5047  100.2799   60.7632 C   0  0  0  0  0  0  0  0  0  0  0  0
   10.3433   99.0458   61.3873 C   0  0  0  0  0  0  0  0  0  0  0  0
    8.3797   94.3415   61.6242 N   0  0  0  0  0  0  0  0  0  0  0  0
    7.3873   95.1827   60.9431 C   0  0  0  0  0  0  0  0  0  0  0  0
    6.3679   94.2113   60.3627 C   0  0  2  0  0  0  0  0  0  0  0  0
    5.0191   94.5766   60.7262 N   0  0  0  0  0  0  0  0  0  0  0  0
    6.6862   92.9027   61.0430 C   0  0  0  0  0  0  0  0  0  0  0  0
    7.5371   93.3460   62.2110 C   0  0  1  0  0  0  0  0  0  0  0  0
    8.2597   92.2199   62.8105 C   0  0  0  0  0  0  0  0  0  0  0  0
    7.7891   91.0594   62.5778 O   0  0  0  0  0  0  0  0  0  0  0  0
  1  2  1  0
  2  3  2  0
  2  4  1  0
  4  5  1  1
  5  6  1  0
  6  7  1  0
  7  8  2  0
  7  9  1  0
  9 10  2  0
 10 11  1  0
 11 12  1  0
 11 13  2  0
 13 14  1  0
  4 15  1  0
 15 16  1  0
 16 17  1  0
 17 18  1  0
 18 19  1  0
 19 20  1  0
 20 21  1  0
 21 22  2  0
 22 23  1  0
 23 24  2  0
 24 25  1  0
 25 26  2  0
 18 27  1  0
 27 28  1  0
 28 29  1  0
 29 30  1  1
 29 31  1  0
 32 31  1  6
 32 33  1  0
 33 34  2  0
 14  9  1  0
 33 15  1  0
 26 21  1  0
 32 27  1  0
M  END
$$$$
