
     RDKit          3D

 25 28  0  0  0  0  0  0  0  0999 V2000
   17.9799  102.6447   51.7493 N   0  0  0  0  0  0  0  0  0  0  0  0
   16.8448  101.8495   51.4892 C   0  0  0  0  0  0  0  0  0  0  0  0
   16.4528  101.4407   50.2811 N   0  0  0  0  0  0  0  0  0  0  0  0
   15.3562  100.6798   50.0909 C   0  0  0  0  0  0  0  0  0  0  0  0
   14.5759  100.2802   51.1378 N   0  0  0  0  0  0  0  0  0  0  0  0
   14.9361  100.6707   52.3712 C   0  0  0  0  0  0  0  0  0  0  0  0
   16.0566  101.4483   52.5662 C   0  0  0  0  0  0  0  0  0  0  0  0
   16.1707  101.6841   53.8915 N   0  0  0  0  0  0  0  0  0  0  0  0
   15.1448  101.0672   54.5047 C   0  0  0  0  0  0  0  0  0  0  0  0
   14.3924  100.4481   53.5651 N   0  0  0  0  0  0  0  0  0  0  0  0
   13.2068   99.6927   53.9208 C   0  0  2  0  0  0  0  0  0  0  0  0
   12.6861  100.1998   55.1148 O   0  0  0  0  0  0  0  0  0  0  0  0
   11.7132   99.2950   55.5040 C   0  0  2  0  0  0  0  0  0  0  0  0
   11.4587   99.2566   56.9498 C   0  0  0  0  0  0  0  0  0  0  0  0
   12.2040   98.6416   57.8276 C   0  0  0  0  0  0  0  0  0  0  0  0
   12.0329   98.5965   59.2489 C   0  0  0  0  0  0  0  0  0  0  0  0
   12.3955   97.6223   60.1096 C   0  0  0  0  0  0  0  0  0  0  0  0
   12.2531   97.7797   61.5097 C   0  0  0  0  0  0  0  0  0  0  0  0
   11.7415   98.9198   62.0585 C   0  0  0  0  0  0  0  0  0  0  0  0
   11.3667   99.9170   61.1933 C   0  0  0  0  0  0  0  0  0  0  0  0
   11.5046   99.7657   59.8478 C   0  0  0  0  0  0  0  0  0  0  0  0
   12.3291   97.9108   55.1737 C   0  0  1  0  0  0  0  0  0  0  0  0
   11.3858   97.1960   54.4478 O   0  0  0  0  0  0  0  0  0  0  0  0
   13.4921   98.2890   54.3124 C   0  0  1  0  0  0  0  0  0  0  0  0
   13.6465   97.4347   53.2215 O   0  0  0  0  0  0  0  0  0  0  0  0
  1  2  1  0
  2  3  2  0
  3  4  1  0
  4  5  2  0
  5  6  1  0
  6  7  2  0
  7  8  1  0
  8  9  2  0
  9 10  1  0
 11 10  1  1
 11 12  1  0
 12 13  1  0
 13 14  1  1
 14 15  2  0
 15 16  1  0
 16 17  2  0
 17 18  1  0
 18 19  2  0
 19 20  1  0
 20 21  2  0
 13 22  1  0
 22 23  1  6
 22 24  1  0
 24 25  1  6
  7  2  1  0
 24 11  1  0
 10  6  1  0
 21 16  1  0
M  END
$$$$
