
     RDKit          3D

 21 22  0  0  0  0  0  0  0  0999 V2000
   14.2773   46.5305   21.4618 C   0  0  0  0  0  0  0  0  0  0  0  0
   14.8713   46.0794   20.1629 C   0  0  0  0  0  0  0  0  0  0  0  0
   15.6074   47.1832   19.4861 C   0  0  0  0  0  0  0  0  0  0  0  0
   14.6907   48.1556   18.7343 C   0  0  0  0  0  0  0  0  0  0  0  0
   15.6158   49.1517   18.0775 C   0  0  0  0  0  0  0  0  0  0  0  0
   14.8431   50.1209   17.2340 C   0  0  0  0  0  0  0  0  0  0  0  0
   15.4105   50.1887   15.8622 C   0  0  0  0  0  0  0  0  0  0  0  0
   15.5026   51.5509   15.3584 N   0  0  0  0  0  0  0  0  0  0  0  0
   16.8753   51.9426   15.3486 C   0  0  0  0  0  0  0  0  0  0  0  0
   17.0345   53.4338   15.0236 C   0  0  0  0  0  0  0  0  0  0  0  0
   16.2157   53.6443   13.8334 N   0  0  0  0  0  0  0  0  0  0  0  0
   15.8596   54.9449   13.3977 C   0  0  0  0  0  0  0  0  0  0  0  0
   14.5114   55.2388   13.1561 C   0  0  0  0  0  0  0  0  0  0  0  0
   14.0948   56.4828   12.7317 C   0  0  0  0  0  0  0  0  0  0  0  0
   14.9963   57.5035   12.5243 C   0  0  0  0  0  0  0  0  0  0  0  0
   14.5339   58.8144   12.0668 C   0  0  0  0  0  0  0  0  0  0  0  0
   14.1560   59.8266   11.7092 N   0  0  0  0  0  0  0  0  0  0  0  0
   16.3216   57.2367   12.7559 C   0  0  0  0  0  0  0  0  0  0  0  0
   16.7488   55.9695   13.1882 C   0  0  0  0  0  0  0  0  0  0  0  0
   15.7945   52.4455   13.1570 C   0  0  0  0  0  0  0  0  0  0  0  0
   14.8251   51.7326   14.1167 C   0  0  0  0  0  0  0  0  0  0  0  0
  1  2  1  0
  2  3  1  0
  3  4  1  0
  4  5  1  0
  5  6  1  0
  6  7  1  0
  7  8  1  0
  8  9  1  0
  9 10  1  0
 10 11  1  0
 11 12  1  0
 12 13  2  0
 13 14  1  0
 14 15  2  0
 15 16  1  0
 16 17  3  0
 15 18  1  0
 18 19  2  0
 11 20  1  0
 20 21  1  0
 21  8  1  0
 19 12  1  0
M  END
$$$$
