
     RDKit          3D

 17 19  0  0  0  0  0  0  0  0999 V2000
   32.8789   81.2089   49.3797 O   0  0  0  0  0  0  0  0  0  0  0  0
   32.7965   81.7089   50.5245 C   0  0  0  0  0  0  0  0  0  0  0  0
   34.0070   81.8229   51.3321 C   0  0  0  0  0  0  0  0  0  0  0  0
   34.2128   83.2155   51.8956 C   0  0  0  0  0  0  0  0  0  0  0  0
   35.6502   83.1834   52.2441 C   0  0  0  0  0  0  0  0  0  0  0  0
   36.2359   83.9346   53.0507 O   0  0  0  0  0  0  0  0  0  0  0  0
   36.2802   82.1491   51.5097 N   0  0  0  0  0  0  0  0  0  0  0  0
   37.6237   81.6327   51.5877 C   0  0  0  0  0  0  0  0  0  0  0  0
   38.1492   81.0327   50.3016 C   0  0  0  0  0  0  0  0  0  0  0  0
   38.8343   79.9740   51.1538 C   0  0  0  0  0  0  0  0  0  0  0  0
   37.7689   80.2629   52.2186 C   0  0  0  0  0  0  0  0  0  0  0  0
   35.2922   81.6166   50.5616 C   0  0  0  0  0  0  0  0  0  0  0  0
   31.5601   82.1576   51.0334 N   0  0  0  0  0  0  0  0  0  0  0  0
   31.3697   82.6148   52.3926 C   0  0  0  0  0  0  0  0  0  0  0  0
   29.9944   83.1753   52.4346 C   0  0  0  0  0  0  0  0  0  0  0  0
   29.2394   82.2970   51.4360 C   0  0  0  0  0  0  0  0  0  0  0  0
   30.2962   82.2389   50.3218 C   0  0  0  0  0  0  0  0  0  0  0  0
  1  2  2  0
  2  3  1  0
  3  4  1  0
  4  5  1  0
  5  6  2  0
  5  7  1  0
  7  8  1  0
  8  9  1  0
  9 10  1  0
 10 11  1  0
  7 12  1  0
  2 13  1  0
 13 14  1  0
 14 15  1  0
 15 16  1  0
 16 17  1  0
 12  3  1  0
 17 13  1  0
 11  8  1  0
M  END
$$$$
