
     RDKit          3D

 43 48  0  0  0  0  0  0  0  0999 V2000
   13.7897   66.7859   14.4014 C   0  0  0  0  0  0  0  0  0  0  0  0
   13.2467   65.6020   13.9585 O   0  0  0  0  0  0  0  0  0  0  0  0
   12.6258   65.3040   12.7978 C   0  0  0  0  0  0  0  0  0  0  0  0
   12.0177   66.2825   12.0283 C   0  0  0  0  0  0  0  0  0  0  0  0
   11.3789   66.0171   10.8321 C   0  0  0  0  0  0  0  0  0  0  0  0
   10.7478   67.0687   10.0313 C   0  0  0  0  0  0  0  0  0  0  0  0
   11.3401   67.4351    8.9752 O   0  0  0  0  0  0  0  0  0  0  0  0
    9.5413   67.6657   10.3847 N   0  0  0  0  0  0  0  0  0  0  0  0
    8.7774   67.2116   11.5370 C   0  0  0  0  0  0  0  0  0  0  0  0
    7.3049   67.1054   11.1535 C   0  0  0  0  0  0  0  0  0  0  0  0
    6.9002   68.1751   10.3853 O   0  0  0  0  0  0  0  0  0  0  0  0
    7.5982   68.3125    9.1948 C   0  0  0  0  0  0  0  0  0  0  0  0
    9.0153   68.7611    9.5627 C   0  0  0  0  0  0  0  0  0  0  0  0
   11.3693   64.7013   10.4221 C   0  0  0  0  0  0  0  0  0  0  0  0
   11.9765   63.7094   11.1859 C   0  0  0  0  0  0  0  0  0  0  0  0
   12.6113   63.9762   12.3757 C   0  0  0  0  0  0  0  0  0  0  0  0
   13.1859   62.9715   13.1652 N   0  0  0  0  0  0  0  0  0  0  0  0
   13.4776   61.6398   12.7581 C   0  0  0  0  0  0  0  0  0  0  0  0
   13.1366   60.9854   11.6494 N   0  0  0  0  0  0  0  0  0  0  0  0
   13.5718   59.7156   11.7209 C   0  0  0  0  0  0  0  0  0  0  0  0
   13.4958   58.6160   10.8956 C   0  0  0  0  0  0  0  0  0  0  0  0
   14.0155   57.3867   11.1944 C   0  0  0  0  0  0  0  0  0  0  0  0
   14.6625   57.2560   12.4268 C   0  0  0  0  0  0  0  0  0  0  0  0
   15.2229   55.9475   12.8108 C   0  0  0  0  0  0  0  0  0  0  0  0
   15.9208   55.1718   11.9120 C   0  0  0  0  0  0  0  0  0  0  0  0
   16.4093   53.9292   12.2908 C   0  0  0  0  0  0  0  0  0  0  0  0
   16.2180   53.4315   13.5598 C   0  0  0  0  0  0  0  0  0  0  0  0
   16.7382   52.1364   13.9817 C   0  0  0  0  0  0  0  0  0  0  0  0
   17.2271   51.3686   13.1413 O   0  0  0  0  0  0  0  0  0  0  0  0
   16.7021   51.7125   15.3443 N   0  0  0  0  0  0  0  0  0  0  0  0
   17.2732   50.4780   15.8384 C   0  0  0  0  0  0  0  0  0  0  0  0
   16.2843   49.5630   16.4235 C   0  0  0  0  0  0  0  0  0  0  0  0
   16.7127   48.2860   16.8020 C   0  0  0  0  0  0  0  0  0  0  0  0
   15.7787   47.4500   17.3404 C   0  0  0  0  0  0  0  0  0  0  0  0
   14.4564   47.8171   17.5183 C   0  0  0  0  0  0  0  0  0  0  0  0
   13.4572   46.8808   18.1039 C   0  0  0  0  0  0  0  0  0  0  0  0
   14.0416   49.0739   17.1454 C   0  0  0  0  0  0  0  0  0  0  0  0
   14.9857   49.9487   16.5908 C   0  0  0  0  0  0  0  0  0  0  0  0
   15.5223   54.2145   14.4438 C   0  0  0  0  0  0  0  0  0  0  0  0
   15.0266   55.4593   14.0838 C   0  0  0  0  0  0  0  0  0  0  0  0
   14.7338   58.3476   13.2354 C   0  0  0  0  0  0  0  0  0  0  0  0
   14.2069   59.5574   12.9063 N   0  0  0  0  0  0  0  0  0  0  0  0
   14.1478   60.7180   13.5232 N   0  0  0  0  0  0  0  0  0  0  0  0
  1  2  1  0
  2  3  1  0
  3  4  2  0
  4  5  1  0
  5  6  1  0
  6  7  2  0
  6  8  1  0
  8  9  1  0
  9 10  1  0
 10 11  1  0
 11 12  1  0
 12 13  1  0
  5 14  2  0
 14 15  1  0
 15 16  2  0
 16 17  1  0
 17 18  1  0
 18 19  1  0
 19 20  2  0
 20 21  1  0
 21 22  2  0
 22 23  1  0
 23 24  1  0
 24 25  2  0
 25 26  1  0
 26 27  2  0
 27 28  1  0
 28 29  2  0
 28 30  1  0
 30 31  1  0
 31 32  1  0
 32 33  2  0
 33 34  1  0
 34 35  2  0
 35 36  1  0
 35 37  1  0
 37 38  2  0
 27 39  1  0
 39 40  2  0
 23 41  2  0
 41 42  1  0
 42 43  1  0
 16  3  1  0
 43 18  2  0
 13  8  1  0
 42 20  1  0
 40 24  1  0
 38 32  1  0
M  END
$$$$
