
     RDKit          3D

 33 36  0  0  0  0  0  0  0  0999 V2000
   19.7489   46.5698   19.0497 C   0  0  0  0  0  0  0  0  0  0  0  0
   18.9887   47.8817   19.0440 C   0  0  0  0  0  0  0  0  0  0  0  0
   17.6451   47.5917   19.2944 O   0  0  0  0  0  0  0  0  0  0  0  0
   16.5688   48.4141   19.0135 C   0  0  0  0  0  0  0  0  0  0  0  0
   15.4076   48.2182   19.7427 C   0  0  0  0  0  0  0  0  0  0  0  0
   14.3063   48.9977   19.5119 C   0  0  0  0  0  0  0  0  0  0  0  0
   14.3791   49.9886   18.5335 C   0  0  0  0  0  0  0  0  0  0  0  0
   15.5080   50.2161   17.7907 C   0  0  0  0  0  0  0  0  0  0  0  0
   15.6377   51.1807   16.8059 O   0  0  0  0  0  0  0  0  0  0  0  0
   15.4635   51.0059   15.4368 C   0  0  0  0  0  0  0  0  0  0  0  0
   15.7153   52.2310   14.6494 C   0  0  0  0  0  0  0  0  0  0  0  0
   16.8260   52.8996   14.4221 N   0  0  0  0  0  0  0  0  0  0  0  0
   16.6014   53.9549   13.6430 N   0  0  0  0  0  0  0  0  0  0  0  0
   15.2943   53.9405   13.3707 C   0  0  0  0  0  0  0  0  0  0  0  0
   14.4215   55.1472   12.3319 S   0  0  0  0  0  0  0  0  0  0  0  0
   15.5929   56.5400   12.0619 C   0  0  0  0  0  0  0  0  0  0  0  0
   14.9788   57.8258   12.4047 C   0  0  0  0  0  0  0  0  0  0  0  0
   15.5432   59.0292   12.1310 C   0  0  0  0  0  0  0  0  0  0  0  0
   14.8988   60.2155   12.4588 C   0  0  0  0  0  0  0  0  0  0  0  0
   13.6639   60.2079   13.0705 C   0  0  0  0  0  0  0  0  0  0  0  0
   12.9220   61.3987   13.4256 C   0  0  0  0  0  0  0  0  0  0  0  0
   13.0310   61.8063   14.6083 O   0  0  0  0  0  0  0  0  0  0  0  0
   12.1091   62.0909   12.5088 N   0  0  0  0  0  0  0  0  0  0  0  0
   11.1880   63.0826   13.0014 C   0  0  0  0  0  0  0  0  0  0  0  0
   11.0345   64.2872   12.1599 C   0  0  0  0  0  0  0  0  0  0  0  0
   11.8392   64.3656   10.9143 C   0  0  0  0  0  0  0  0  0  0  0  0
   11.2931   63.5022    9.7918 C   0  0  0  0  0  0  0  0  0  0  0  0
   11.1187   62.0663   10.2740 C   0  0  0  0  0  0  0  0  0  0  0  0
   12.3144   61.6846   11.1201 C   0  0  0  0  0  0  0  0  0  0  0  0
   13.1052   58.9494   13.3415 C   0  0  0  0  0  0  0  0  0  0  0  0
   13.7367   57.7702   13.0217 C   0  0  0  0  0  0  0  0  0  0  0  0
   14.7806   52.9149   13.9754 O   0  0  0  0  0  0  0  0  0  0  0  0
   16.5932   49.4071   18.0551 C   0  0  0  0  0  0  0  0  0  0  0  0
  1  2  1  0
  2  3  1  0
  3  4  1  0
  4  5  2  0
  5  6  1  0
  6  7  2  0
  7  8  1  0
  8  9  1  0
  9 10  1  0
 10 11  1  0
 11 12  2  0
 12 13  1  0
 13 14  2  0
 14 15  1  0
 15 16  1  0
 16 17  1  0
 17 18  2  0
 18 19  1  0
 19 20  2  0
 20 21  1  0
 21 22  2  0
 21 23  1  0
 23 24  1  0
 24 25  1  0
 25 26  1  0
 26 27  1  0
 27 28  1  0
 28 29  1  0
 20 30  1  0
 30 31  2  0
 14 32  1  0
  8 33  2  0
 33  4  1  0
 32 11  1  0
 31 17  1  0
 29 23  1  0
M  END
$$$$
