
     RDKit          3D

 25 28  0  0  0  0  0  0  0  0999 V2000
   40.3048   81.0348   54.8488 C   0  0  0  0  0  0  0  0  0  0  0  0
   39.1995   81.2825   53.8889 C   0  0  0  0  0  0  0  0  0  0  0  0
   38.3101   82.3180   54.0369 C   0  0  0  0  0  0  0  0  0  0  0  0
   37.2760   82.5450   53.1340 C   0  0  0  0  0  0  0  0  0  0  0  0
   37.1190   81.7273   52.0591 C   0  0  0  0  0  0  0  0  0  0  0  0
   36.0896   81.8657   51.0689 C   0  0  0  0  0  0  0  0  0  0  0  0
   34.4009   82.4771   51.5243 S   0  0  0  0  0  0  0  0  0  0  0  0
   33.8134   82.3322   49.7396 C   0  0  0  0  0  0  0  0  0  0  0  0
   32.4358   82.7125   49.4684 N   0  0  0  0  0  0  0  0  0  0  0  0
   31.3767   82.6055   50.3699 C   0  0  0  0  0  0  0  0  0  0  0  0
   31.5445   82.2832   51.6812 C   0  0  0  0  0  0  0  0  0  0  0  0
   30.4488   82.2091   52.5506 C   0  0  0  0  0  0  0  0  0  0  0  0
   29.1974   82.4726   52.0328 C   0  0  0  0  0  0  0  0  0  0  0  0
   29.0220   82.7951   50.7214 C   0  0  0  0  0  0  0  0  0  0  0  0
   30.1072   82.8586   49.9050 C   0  0  0  0  0  0  0  0  0  0  0  0
   34.7838   81.9409   49.2602 N   0  0  0  0  0  0  0  0  0  0  0  0
   35.9473   81.6732   49.7802 N   0  0  0  0  0  4  0  0  0  0  0  0
   37.0473   81.1794   48.9508 C   0  0  0  0  0  0  0  0  0  0  0  0
   36.8690   80.1603   48.0441 C   0  0  0  0  0  0  0  0  0  0  0  0
   37.8715   79.6927   47.2270 C   0  0  0  0  0  0  0  0  0  0  0  0
   39.1185   80.2912   47.3369 C   0  0  0  0  0  0  0  0  0  0  0  0
   39.3413   81.3160   48.2327 C   0  0  0  0  0  0  0  0  0  0  0  0
   38.3090   81.7551   49.0337 C   0  0  0  0  0  0  0  0  0  0  0  0
   38.0231   80.6849   51.9198 C   0  0  0  0  0  0  0  0  0  0  0  0
   39.0395   80.4640   52.8096 C   0  0  0  0  0  0  0  0  0  0  0  0
  1  2  1  0
  2  3  2  0
  3  4  1  0
  4  5  2  0
  5  6  1  0
  6  7  1  0
  7  8  1  0
  8  9  1  0
  9 10  1  0
 10 11  2  0
 11 12  1  0
 12 13  2  0
 13 14  1  0
 14 15  2  0
  8 16  2  0
 16 17  1  0
 17 18  1  0
 18 19  2  0
 19 20  1  0
 20 21  2  0
 21 22  1  0
 22 23  2  0
  5 24  1  0
 24 25  2  0
 25  2  1  0
 17  6  2  0
 23 18  1  0
 15 10  1  0
M  CHG  1  17   1
M  END
$$$$
