
     RDKit          3D

 22 25  0  0  0  0  0  0  0  0999 V2000
   10.9320  102.4882   56.7601 C   0  0  0  0  0  0  0  0  0  0  0  0
   11.3168  101.3280   57.6359 C   0  0  0  0  0  0  0  0  0  0  0  0
   12.5844  101.1811   58.1550 C   0  0  0  0  0  0  0  0  0  0  0  0
   12.8901  100.1176   58.9749 C   0  0  0  0  0  0  0  0  0  0  0  0
   11.9581   99.1904   59.2945 N   0  0  0  0  0  0  0  0  0  0  0  0
   11.9978   98.0792   60.0894 C   0  0  0  0  0  0  0  0  0  0  0  0
   13.3888   97.4325   60.9927 S   0  0  0  0  0  0  0  0  0  0  0  0
   12.8480   96.4060   62.3762 C   0  0  0  0  0  0  0  0  0  0  0  0
   12.6479   95.0063   61.8260 C   0  0  0  0  0  0  0  0  0  0  0  0
   13.0998   93.9978   62.7978 C   0  0  0  0  0  0  0  0  0  0  0  0
   14.3537   93.4588   62.9979 C   0  0  0  0  0  0  0  0  0  0  0  0
   14.3128   92.5847   64.0198 N   0  0  0  0  0  0  0  0  0  0  0  0
   13.0516   92.5068   64.5291 C   0  0  0  0  0  0  0  0  0  0  0  0
   12.5057   91.7814   65.5648 C   0  0  0  0  0  0  0  0  0  0  0  0
   11.1780   91.9003   65.8901 C   0  0  0  0  0  0  0  0  0  0  0  0
   10.4246   92.7850   65.1186 C   0  0  0  0  0  0  0  0  0  0  0  0
   10.9729   93.5055   64.0868 C   0  0  0  0  0  0  0  0  0  0  0  0
   12.3083   93.3835   63.7672 C   0  0  0  0  0  0  0  0  0  0  0  0
   10.7414   97.5528   60.0446 N   0  0  0  0  0  0  0  0  0  0  0  0
   10.0012   98.3037   59.2737 N   0  0  0  0  0  0  0  0  0  0  0  0
   10.7262   99.3397   58.7851 C   0  0  0  0  0  0  0  0  0  0  0  0
   10.4238  100.3861   57.9757 N   0  0  0  0  0  0  0  0  0  0  0  0
  1  2  1  0
  2  3  1  0
  3  4  2  0
  4  5  1  0
  5  6  1  0
  6  7  1  0
  7  8  1  0
  8  9  1  0
  9 10  1  0
 10 11  2  0
 11 12  1  0
 12 13  1  0
 13 14  2  0
 14 15  1  0
 15 16  2  0
 16 17  1  0
 17 18  2  0
  6 19  2  0
 19 20  1  0
 20 21  2  0
 21 22  1  0
 22  2  2  0
 21  5  1  0
 18 10  1  0
 18 13  1  0
M  END
$$$$
