
     RDKit          3D

 24 25  0  0  0  0  0  0  0  0999 V2000
   20.2311   45.3923   22.7028 C   0  0  0  0  0  0  0  0  0  0  0  0
   19.8994   46.7631   22.1597 C   0  0  0  0  0  0  0  0  0  0  0  0
   19.5015   47.6333   23.3507 C   0  0  0  0  0  0  0  0  0  0  0  0
   20.6367   48.2658   23.8844 O   0  0  0  0  0  0  0  0  0  0  0  0
   18.8348   46.7087   21.1882 N   0  0  0  0  0  0  0  0  0  0  0  0
   18.5243   47.8613   20.4120 C   0  0  0  0  0  0  0  0  0  0  0  0
   19.2483   48.9045   20.5487 O   0  0  0  0  0  0  0  0  0  0  0  0
   17.4333   47.8407   19.5106 N   0  0  0  0  0  0  0  0  0  0  0  0
   16.9672   49.0733   18.9001 C   0  0  0  0  0  0  0  0  0  0  0  0
   17.4446   49.2129   17.4828 C   0  0  0  0  0  0  0  0  0  0  0  0
   16.8058   50.2597   16.7842 C   0  0  0  0  0  0  0  0  0  0  0  0
   17.7983   51.3491   15.7816 S   0  0  0  0  0  0  0  0  0  0  0  0
   16.3171   52.3441   15.1687 C   0  0  0  0  0  0  0  0  0  0  0  0
   16.5979   53.4671   14.2244 C   0  0  0  0  0  0  0  0  0  0  0  0
   15.5274   54.1433   13.6843 C   0  0  0  0  0  0  0  0  0  0  0  0
   15.7034   55.1975   12.7963 C   0  0  0  0  0  0  0  0  0  0  0  0
   16.9927   55.5503   12.4684 C   0  0  0  0  0  0  0  0  0  0  0  0
   18.0759   54.8831   13.0007 C   0  0  0  0  0  0  0  0  0  0  0  0
   17.8796   53.8231   13.8942 C   0  0  0  0  0  0  0  0  0  0  0  0
   15.4797   51.7841   15.7267 N   0  0  0  0  0  0  0  0  0  0  0  0
   15.5488   50.7492   16.5516 C   0  0  0  0  0  0  0  0  0  0  0  0
   14.3356   50.2000   17.2120 C   0  0  0  0  0  0  0  0  0  0  0  0
   13.4963   49.4208   16.1913 C   0  0  0  0  0  0  0  0  0  0  0  0
   13.5183   51.1524   17.9958 C   0  0  0  0  0  0  0  0  0  0  0  0
  1  2  1  0
  2  3  1  0
  3  4  1  0
  2  5  1  0
  5  6  1  0
  6  7  2  0
  6  8  1  0
  8  9  1  0
  9 10  1  0
 10 11  1  0
 11 12  1  0
 12 13  1  0
 13 14  1  0
 14 15  2  0
 15 16  1  0
 16 17  2  0
 17 18  1  0
 18 19  2  0
 13 20  2  0
 20 21  1  0
 21 22  1  0
 22 23  1  0
 22 24  1  0
 21 11  2  0
 19 14  1  0
M  END
$$$$
