
     RDKit          3D

 24 26  0  0  0  0  0  0  0  0999 V2000
   16.9020   58.0763   13.5125 O   0  0  0  0  0  0  0  0  0  0  0  0
   15.8785   57.5975   12.8822 C   0  0  0  0  0  0  0  0  0  0  0  0
   16.0177   56.2399   12.5378 N   0  0  0  0  0  0  0  0  0  0  0  0
   17.1831   55.4630   12.9369 C   0  0  0  0  0  0  0  0  0  0  0  0
   17.1462   55.1882   14.4249 C   0  0  0  0  0  0  0  0  0  0  0  0
   16.1349   54.1568   14.7623 C   0  0  0  0  0  0  0  0  0  0  0  0
   16.4389   52.8167   14.6235 C   0  0  0  0  0  0  0  0  0  0  0  0
   15.4915   51.8753   14.9401 C   0  0  0  0  0  0  0  0  0  0  0  0
   14.2837   52.2715   15.3799 N   0  0  0  0  0  0  0  0  0  0  0  0
   13.9654   53.5815   15.5231 C   0  0  0  0  0  0  0  0  0  0  0  0
   14.8867   54.5581   15.2166 C   0  0  0  0  0  0  0  0  0  0  0  0
   14.7551   58.4559   12.6087 C   0  0  0  0  0  0  0  0  0  0  0  0
   14.7089   59.7736   12.9625 C   0  0  0  0  0  0  0  0  0  0  0  0
   15.7601   60.3885   13.6221 O   0  0  0  0  0  0  0  0  0  0  0  0
   13.5653   60.5267   12.6497 C   0  0  0  0  0  0  0  0  0  0  0  0
   13.5399   61.8673   13.0196 C   0  0  0  0  0  0  0  0  0  0  0  0
   12.4176   62.6083   12.7131 C   0  0  0  0  0  0  0  0  0  0  0  0
   11.3816   61.9775   12.0560 C   0  0  0  0  0  0  0  0  0  0  0  0
   11.4116   60.6818   11.7010 N   0  0  0  0  0  0  0  0  0  0  0  0
   12.5135   59.9362   11.9968 C   0  0  0  0  0  0  0  0  0  0  0  0
   12.5747   58.6395   11.6559 N   0  0  0  0  0  0  0  0  0  0  0  0
   11.5087   58.0666   11.0014 O   0  0  0  0  0  0  0  0  0  0  0  0
   13.6509   57.8976   11.9408 C   0  0  0  0  0  0  0  0  0  0  0  0
   13.7141   56.6663   11.6194 O   0  0  0  0  0  0  0  0  0  0  0  0
  1  2  2  0
  2  3  1  0
  3  4  1  0
  4  5  1  0
  5  6  1  0
  6  7  2  0
  7  8  1  0
  8  9  2  0
  9 10  1  0
 10 11  2  0
  2 12  1  0
 12 13  2  0
 13 14  1  0
 13 15  1  0
 15 16  2  0
 16 17  1  0
 17 18  2  0
 18 19  1  0
 19 20  2  0
 20 21  1  0
 21 22  1  0
 21 23  1  0
 23 24  2  0
 11  6  1  0
 23 12  1  0
 20 15  1  0
M  END
$$$$
