
     RDKit          3D

 25 27  0  0  0  0  0  0  0  0999 V2000
   18.4047   54.6674    8.2925 C   0  0  0  0  0  0  0  0  0  0  0  0
   17.5563   54.9392    9.4808 C   0  0  0  0  0  0  0  0  0  0  0  0
   17.6552   54.3158   10.6470 N   0  0  0  0  0  0  0  0  0  0  0  0
   16.7375   54.8112   11.4883 C   0  0  0  0  0  0  0  0  0  0  0  0
   16.5524   54.3655   12.8611 C   0  0  0  0  0  0  0  0  0  0  0  0
   17.7925   54.4740   13.7133 C   0  0  0  0  0  0  0  0  0  0  0  0
   17.5710   53.5607   14.9012 C   0  0  0  0  0  0  0  0  0  0  0  0
   16.1454   53.5222   15.1889 N   0  0  0  0  0  0  0  0  0  0  0  0
   15.5884   52.3581   15.7502 C   0  0  0  0  0  0  0  0  0  0  0  0
   14.3563   52.3064   15.9325 O   0  0  0  0  0  0  0  0  0  0  0  0
   16.4473   51.2474   16.1043 C   0  0  0  0  0  0  0  0  0  0  0  0
   17.8383   51.3905   16.1174 C   0  0  0  0  0  0  0  0  0  0  0  0
   18.6576   50.3332   16.4546 C   0  0  0  0  0  0  0  0  0  0  0  0
   18.0872   49.1214   16.7819 C   0  0  0  0  0  0  0  0  0  0  0  0
   16.7500   49.0054   16.7630 N   0  0  0  0  0  0  0  0  0  0  0  0
   15.9375   50.0043   16.4430 C   0  0  0  0  0  0  0  0  0  0  0  0
   14.5546   49.8806   16.4246 O   0  0  0  0  0  0  0  0  0  0  0  0
   14.0063   48.6413   16.8309 C   0  0  0  0  0  0  0  0  0  0  0  0
   13.4122   48.7246   18.2242 C   0  0  0  0  0  0  0  0  0  0  0  0
   12.4467   49.6828   18.2489 F   0  0  0  0  0  0  0  0  0  0  0  0
   12.8555   47.4958   18.5788 F   0  0  0  0  0  0  0  0  0  0  0  0
   15.2819   54.6501   14.9142 C   0  0  0  0  0  0  0  0  0  0  0  0
   15.4965   55.2271   13.5349 C   0  0  0  0  0  0  0  0  0  0  0  0
   16.0738   55.7548   10.8059 N   0  0  0  0  0  0  0  0  0  0  0  0
   16.5812   55.8116    9.6117 O   0  0  0  0  0  0  0  0  0  0  0  0
  1  2  1  0
  2  3  2  0
  3  4  1  0
  4  5  1  0
  5  6  1  0
  6  7  1  0
  7  8  1  0
  8  9  1  0
  9 10  2  0
  9 11  1  0
 11 12  2  0
 12 13  1  0
 13 14  2  0
 14 15  1  0
 15 16  2  0
 16 17  1  0
 17 18  1  0
 18 19  1  0
 19 20  1  0
 19 21  1  0
  8 22  1  0
 22 23  1  0
  4 24  2  0
 24 25  1  0
 25  2  1  0
 23  5  1  0
 16 11  1  0
M  END
$$$$
