
     RDKit          3D

 23 25  0  0  0  0  0  0  0  0999 V2000
   40.8796   78.0995   53.2244 C   0  0  0  0  0  0  0  0  0  0  0  0
   39.9941   79.0360   52.4529 C   0  0  0  0  0  0  0  0  0  0  0  0
   40.2035   79.1417   51.2254 O   0  0  0  0  0  0  0  0  0  0  0  0
   38.9866   79.7415   53.1308 N   0  0  0  0  0  0  0  0  0  0  0  0
   38.6066   79.6043   54.5163 C   0  0  0  0  0  0  0  0  0  0  0  0
   37.1180   79.8770   54.4515 C   0  0  0  0  0  0  0  0  0  0  0  0
   37.0102   80.8636   53.3185 C   0  0  0  0  0  0  0  0  0  0  0  0
   36.0698   81.7739   52.9337 C   0  0  0  0  0  0  0  0  0  0  0  0
   36.1944   82.5825   51.8134 C   0  0  0  0  0  0  0  0  0  0  0  0
   35.1535   83.5718   51.4274 C   0  0  0  0  0  0  0  0  0  0  0  0
   33.8710   83.0041   51.2029 N   0  0  0  0  0  0  0  0  0  0  0  0
   33.3589   82.4500   49.9974 C   0  0  0  0  0  0  0  0  0  0  0  0
   34.1807   82.3696   49.0450 O   0  0  0  0  0  0  0  0  0  0  0  0
   31.9735   82.0126   49.8866 C   0  0  0  0  0  0  0  0  0  0  0  0
   31.0359   82.0666   50.8970 C   0  0  0  0  0  0  0  0  0  0  0  0
   29.8328   81.5596   50.4223 C   0  0  0  0  0  0  0  0  0  0  0  0
   28.5660   81.4493   51.2231 C   0  0  0  0  0  0  0  0  0  0  0  0
   30.0445   81.2195   49.1877 O   0  0  0  0  0  0  0  0  0  0  0  0
   31.3043   81.4700   48.8216 C   0  0  0  0  0  0  0  0  0  0  0  0
   31.9020   81.2097   47.4831 C   0  0  0  0  0  0  0  0  0  0  0  0
   37.3457   82.4353   51.0658 C   0  0  0  0  0  0  0  0  0  0  0  0
   38.3205   81.5272   51.4204 C   0  0  0  0  0  0  0  0  0  0  0  0
   38.1506   80.7313   52.5611 C   0  0  0  0  0  0  0  0  0  0  0  0
  1  2  1  0
  2  3  2  0
  2  4  1  0
  4  5  1  0
  5  6  1  0
  6  7  1  0
  7  8  2  0
  8  9  1  0
  9 10  1  0
 10 11  1  0
 11 12  1  0
 12 13  2  0
 12 14  1  0
 14 15  1  0
 15 16  2  0
 16 17  1  0
 16 18  1  0
 18 19  1  0
 19 20  1  0
  9 21  2  0
 21 22  1  0
 22 23  2  0
 23  4  1  0
 23  7  1  0
 19 14  2  0
M  END
$$$$
