
     RDKit          3D

 26 28  0  0  0  0  0  0  0  0999 V2000
   11.8996   60.8711   13.0906 C   0  0  0  0  0  0  0  0  0  0  0  0
   13.2933   60.3380   12.8499 C   0  0  0  0  0  0  0  0  0  0  0  0
   13.2054   58.8969   12.4828 C   0  0  0  0  0  0  0  0  0  0  0  0
   12.2002   58.2453   11.9004 N   0  0  0  0  0  0  0  0  0  0  0  0
   12.5445   56.9727   11.7668 N   0  0  0  0  0  0  0  0  0  0  0  0
   13.7798   56.8044   12.2672 C   0  0  0  0  0  0  0  0  0  0  0  0
   14.1756   58.0079   12.7069 N   0  0  0  0  0  0  0  0  0  0  0  0
   15.4907   58.0818   13.3055 C   0  0  0  0  0  0  0  0  0  0  0  0
   16.4001   57.2248   12.4938 C   0  0  0  0  0  0  0  0  0  0  0  0
   16.0345   55.8509   12.4326 N   0  0  0  0  0  0  0  0  0  0  0  0
   16.6475   55.0314   13.4704 C   0  0  0  0  0  0  0  0  0  0  0  0
   15.6192   54.1391   14.0181 C   0  0  0  0  0  0  0  0  0  0  0  0
   14.4306   54.4907   14.2126 O   0  0  0  0  0  0  0  0  0  0  0  0
   15.9317   52.7890   14.3598 N   0  0  0  0  0  0  0  0  0  0  0  0
   15.3311   52.1456   15.4878 C   0  0  0  0  0  0  0  0  0  0  0  0
   16.0884   50.9332   15.8946 C   0  0  0  0  0  0  0  0  0  0  0  0
   15.4723   50.3036   17.1029 C   0  0  0  0  0  0  0  0  0  0  0  0
   16.2161   49.4454   17.8862 C   0  0  0  0  0  0  0  0  0  0  0  0
   15.6336   48.8626   19.0029 C   0  0  0  0  0  0  0  0  0  0  0  0
   14.3191   49.1225   19.3520 C   0  0  0  0  0  0  0  0  0  0  0  0
   13.5778   49.9787   18.5704 C   0  0  0  0  0  0  0  0  0  0  0  0
   14.1735   50.5460   17.4674 C   0  0  0  0  0  0  0  0  0  0  0  0
   16.4015   49.9443   14.8316 C   0  0  0  0  0  0  0  0  0  0  0  0
   17.5068   50.4909   13.9467 C   0  0  0  0  0  0  0  0  0  0  0  0
   16.7522   48.5759   15.2694 C   0  0  0  0  0  0  0  0  0  0  0  0
   14.6100   55.5955   12.3568 C   0  0  0  0  0  0  0  0  0  0  0  0
  1  2  1  0
  2  3  1  0
  3  4  2  0
  4  5  1  0
  5  6  2  0
  6  7  1  0
  7  8  1  0
  8  9  1  0
  9 10  1  0
 10 11  1  0
 11 12  1  0
 12 13  2  0
 12 14  1  0
 14 15  1  0
 15 16  1  0
 16 17  1  0
 17 18  2  0
 18 19  1  0
 19 20  2  0
 20 21  1  0
 21 22  2  0
 16 23  1  0
 23 24  1  0
 23 25  1  0
 10 26  1  0
  7  3  1  0
 22 17  1  0
 26  6  1  0
M  END
$$$$
