
     RDKit          3D

 34 36  0  0  0  0  0  0  0  0999 V2000
   20.4099   52.3547   15.4724 C   0  0  0  0  0  0  0  0  0  0  0  0
   19.2646   53.0393   14.8849 C   0  0  0  0  0  0  0  0  0  0  0  0
   19.7495   54.4532   14.4784 C   0  0  0  0  0  0  0  0  0  0  0  0
   19.7069   55.3447   15.5166 O   0  0  0  0  0  0  0  0  0  0  0  0
   18.8547   52.3551   13.5743 C   0  0  0  0  0  0  0  0  0  0  0  0
   18.1479   53.1719   12.6175 C   0  0  0  0  0  0  0  0  0  0  0  0
   17.7039   54.4584   12.8620 C   0  0  0  0  0  0  0  0  0  0  0  0
   17.0098   55.1837   11.9155 C   0  0  0  0  0  0  0  0  0  0  0  0
   16.7225   54.6628   10.6752 C   0  0  0  0  0  0  0  0  0  0  0  0
   15.8282   55.5961    9.4689 Cl  0  0  0  0  0  0  0  0  0  0  0  0
   17.1547   53.3782   10.4004 C   0  0  0  0  0  0  0  0  0  0  0  0
   17.8494   52.6522   11.3476 C   0  0  0  0  0  0  0  0  0  0  0  0
   18.0509   53.2434   15.5659 N   0  0  0  0  0  0  0  0  0  0  0  0
   17.4489   52.2664   16.3428 C   0  0  0  0  0  0  0  0  0  0  0  0
   16.6868   51.1740   15.5851 C   0  0  0  0  0  0  0  0  0  0  0  0
   15.5317   51.7741   14.9963 O   0  0  0  0  0  0  0  0  0  0  0  0
   16.0421   50.2751   16.6317 C   0  0  0  0  0  0  0  0  0  0  0  0
   14.7669   50.6717   17.0382 C   0  0  0  0  0  0  0  0  0  0  0  0
   14.1434   49.9263   18.0148 C   0  0  0  0  0  0  0  0  0  0  0  0
   12.7645   50.3004   18.4967 C   0  0  0  0  0  0  0  0  0  0  0  0
   12.1978   49.2337   19.1287 F   0  0  0  0  0  0  0  0  0  0  0  0
   12.0750   50.7233   17.3765 F   0  0  0  0  0  0  0  0  0  0  0  0
   12.9056   51.3918   19.3139 F   0  0  0  0  0  0  0  0  0  0  0  0
   14.7336   48.8539   18.5625 N   0  0  0  0  0  0  0  0  0  0  0  0
   15.9641   48.4595   18.1788 C   0  0  0  0  0  0  0  0  0  0  0  0
   16.5381   47.3525   18.7649 C   0  0  0  0  0  0  0  0  0  0  0  0
   15.8143   46.6029   19.8087 C   0  0  0  0  0  0  0  0  0  0  0  0
   14.5663   46.2068   19.3427 F   0  0  0  0  0  0  0  0  0  0  0  0
   15.6714   47.4010   20.9475 F   0  0  0  0  0  0  0  0  0  0  0  0
   16.5543   45.4921   20.2041 F   0  0  0  0  0  0  0  0  0  0  0  0
   17.7856   46.9534   18.3755 C   0  0  0  0  0  0  0  0  0  0  0  0
   18.4333   47.6747   17.4047 C   0  0  0  0  0  0  0  0  0  0  0  0
   17.8721   48.7852   16.8081 C   0  0  0  0  0  0  0  0  0  0  0  0
   16.6283   49.1904   17.1905 C   0  0  0  0  0  0  0  0  0  0  0  0
  1  2  1  0
  2  3  1  0
  3  4  1  0
  2  5  1  0
  5  6  1  0
  6  7  2  0
  7  8  1  0
  8  9  2  0
  9 10  1  0
  9 11  1  0
 11 12  2  0
  2 13  1  0
 13 14  1  0
 14 15  1  0
 15 16  1  0
 15 17  1  0
 17 18  2  0
 18 19  1  0
 19 20  1  0
 20 21  1  0
 20 22  1  0
 20 23  1  0
 19 24  2  0
 24 25  1  0
 25 26  2  0
 26 27  1  0
 27 28  1  0
 27 29  1  0
 27 30  1  0
 26 31  1  0
 31 32  2  0
 32 33  1  0
 33 34  2  0
 12  6  1  0
 34 17  1  0
 34 25  1  0
M  END
$$$$
