
     RDKit          3D

 34 37  0  0  0  0  0  0  0  0999 V2000
   16.5315   53.6078   11.5857 C   0  0  0  0  0  0  0  0  0  0  0  0
   16.8306   52.8298   12.8027 C   0  0  0  0  0  0  0  0  0  0  0  0
   18.1220   52.4168   13.0400 C   0  0  0  0  0  0  0  0  0  0  0  0
   18.4240   51.6786   14.1823 C   0  0  0  0  0  0  0  0  0  0  0  0
   17.4546   51.3404   15.1024 C   0  0  0  0  0  0  0  0  0  0  0  0
   17.8293   50.5514   16.2682 C   0  0  1  0  0  0  0  0  0  0  0  0
   18.3867   51.3490   17.4249 C   0  0  0  0  0  0  0  0  0  0  0  0
   19.0169   50.3422   18.3689 C   0  0  2  0  0  0  0  0  0  0  0  0
   20.4628   50.5351   18.2015 N   0  0  0  0  0  0  0  0  0  0  0  0
   21.2072   51.4762   18.8029 C   0  0  0  0  0  0  0  0  0  0  0  0
   22.5344   51.3331   18.4005 C   0  0  0  0  0  0  0  0  0  0  0  0
   23.6658   52.1800   18.8456 C   0  0  0  0  0  0  0  0  0  0  0  0
   24.0503   51.8579   20.1220 O   0  0  0  0  0  0  0  0  0  0  0  0
   25.1180   52.5801   20.5912 C   0  0  0  0  0  0  0  0  0  0  0  0
   25.4352   52.0598   21.9979 C   0  0  0  0  0  0  0  0  0  0  0  0
   24.8512   54.0547   20.7432 C   0  0  0  0  0  0  0  0  0  0  0  0
   26.3778   52.4115   19.7837 C   0  0  0  0  0  0  0  0  0  0  0  0
   27.3797   53.2597   20.2435 O   0  0  0  0  0  0  0  0  0  0  0  0
   22.5305   50.2892   17.5548 N   0  0  0  0  0  0  0  0  0  0  0  0
   21.2925   49.8326   17.4525 N   0  0  0  0  0  0  0  0  0  0  0  0
   18.7094   48.9341   18.0433 C   0  0  1  0  0  0  0  0  0  0  0  0
   18.8504   48.1880   19.2387 O   0  0  0  0  0  0  0  0  0  0  0  0
   17.3490   48.6273   17.5156 C   0  0  0  0  0  0  0  0  0  0  0  0
   16.8269   49.7089   16.8218 N   0  0  0  0  0  0  0  0  0  0  0  0
   15.5108   50.0375   16.7459 C   0  0  0  0  0  0  0  0  0  0  0  0
   14.4628   49.1737   17.3935 C   0  0  0  0  0  0  0  0  0  0  0  0
   14.6994   49.0856   18.8988 C   0  0  0  0  0  0  0  0  0  0  0  0
   13.5368   49.6354   19.6940 C   0  0  0  0  0  0  0  0  0  0  0  0
   12.2589   48.8818   19.3802 C   0  0  0  0  0  0  0  0  0  0  0  0
   12.1928   48.5073   17.9198 C   0  0  0  0  0  0  0  0  0  0  0  0
   13.0503   49.5372   17.1477 C   0  0  0  0  0  0  0  0  0  0  0  0
   16.1742   51.7713   14.8325 C   0  0  0  0  0  0  0  0  0  0  0  0
   15.8555   52.5066   13.7008 C   0  0  0  0  0  0  0  0  0  0  0  0
   14.4643   52.9400   13.4582 C   0  0  0  0  0  0  0  0  0  0  0  0
  1  2  1  0
  2  3  2  0
  3  4  1  0
  4  5  2  0
  6  5  1  6
  6  7  1  0
  7  8  1  0
  8  9  1  6
  9 10  1  0
 10 11  2  0
 11 12  1  0
 12 13  1  0
 13 14  1  0
 14 15  1  0
 14 16  1  0
 14 17  1  0
 17 18  1  0
 11 19  1  0
 19 20  2  0
  8 21  1  0
 21 22  1  1
 21 23  1  0
 23 24  1  0
 24 25  1  0
 25 26  1  0
 26 27  1  0
 27 28  1  0
 28 29  1  0
 29 30  1  0
 30 31  1  0
  5 32  1  0
 32 33  2  0
 33 34  1  0
 33  2  1  0
 24  6  1  0
 31 26  1  0
 20  9  1  0
M  END
$$$$
