
     RDKit          3D

 24 25  0  0  0  0  0  0  0  0999 V2000
   41.7321   77.2875   58.2655 C   0  0  0  0  0  0  0  0  0  0  0  0
   41.1933   78.5803   58.2978 O   0  0  0  0  0  0  0  0  0  0  0  0
   40.9915   79.3504   57.1635 C   0  0  0  0  0  0  0  0  0  0  0  0
   41.6061   80.5842   57.1353 C   0  0  0  0  0  0  0  0  0  0  0  0
   41.4354   81.3894   56.0287 C   0  0  0  0  0  0  0  0  0  0  0  0
   40.6624   80.9685   54.9718 C   0  0  0  0  0  0  0  0  0  0  0  0
   40.4411   81.7391   53.8312 O   0  0  0  0  0  0  0  0  0  0  0  0
   39.5158   81.3307   52.8554 C   0  0  0  0  0  0  0  0  0  0  0  0
   39.2636   82.4195   51.8469 C   0  0  0  0  0  0  0  0  0  0  0  0
   37.8640   82.6562   51.6432 N   0  0  0  0  0  0  0  0  0  0  0  0
   37.1855   83.4488   52.6966 C   0  0  0  0  0  0  0  0  0  0  0  0
   37.0687   82.2378   50.5785 C   0  0  0  0  0  0  0  0  0  0  0  0
   37.6008   81.5123   49.6693 O   0  0  0  0  0  0  0  0  0  0  0  0
   35.6902   82.5264   50.3663 N   0  0  0  0  0  0  0  0  0  0  0  0
   35.0238   81.9673   49.1979 C   0  0  0  0  0  0  0  0  0  0  0  0
   33.5650   81.9867   49.2613 C   0  0  0  0  0  0  0  0  0  0  0  0
   32.6842   82.3575   50.2581 C   0  0  0  0  0  0  0  0  0  0  0  0
   31.4102   82.1564   49.7830 C   0  0  0  0  0  0  0  0  0  0  0  0
   30.1117   82.4026   50.4739 C   0  0  0  0  0  0  0  0  0  0  0  0
   31.5335   81.6952   48.5795 O   0  0  0  0  0  0  0  0  0  0  0  0
   32.7744   81.5692   48.2048 C   0  0  0  0  0  0  0  0  0  0  0  0
   33.2435   81.0697   46.8854 C   0  0  0  0  0  0  0  0  0  0  0  0
   40.0604   79.7211   55.0324 C   0  0  0  0  0  0  0  0  0  0  0  0
   40.2115   78.8948   56.1198 C   0  0  0  0  0  0  0  0  0  0  0  0
  1  2  1  0
  2  3  1  0
  3  4  2  0
  4  5  1  0
  5  6  2  0
  6  7  1  0
  7  8  1  0
  8  9  1  0
  9 10  1  0
 10 11  1  0
 10 12  1  0
 12 13  2  0
 12 14  1  0
 14 15  1  0
 15 16  1  0
 16 17  1  0
 17 18  2  0
 18 19  1  0
 18 20  1  0
 20 21  1  0
 21 22  1  0
  6 23  1  0
 23 24  2  0
 24  3  1  0
 21 16  2  0
M  END
$$$$
