
     RDKit          3D

 29 31  0  0  0  0  0  0  0  0999 V2000
   39.9595   82.9172   47.8940 O   0  0  0  0  0  0  0  0  0  0  0  0
   39.3794   81.6763   48.0931 C   0  0  0  0  0  0  0  0  0  0  0  0
   38.8950   81.5167   49.5366 C   0  0  1  0  0  0  0  0  0  0  0  0
   39.8211   82.0033   50.4246 O   0  0  0  0  0  0  0  0  0  0  0  0
   39.2681   82.5744   51.5744 C   0  0  2  0  0  0  0  0  0  0  0  0
   40.2390   82.5516   52.5618 O   0  0  0  0  0  0  0  0  0  0  0  0
   41.4935   83.1050   52.5624 C   0  0  0  0  0  0  0  0  0  0  0  0
   41.6700   84.4482   52.3951 C   0  0  0  0  0  0  0  0  0  0  0  0
   42.9557   84.9791   52.4006 C   0  0  0  0  0  0  0  0  0  0  0  0
   44.0566   84.1948   52.5691 C   0  0  0  0  0  0  0  0  0  0  0  0
   45.7868   85.0034   52.5637 Br  0  0  0  0  0  0  0  0  0  0  0  0
   43.8719   82.8433   52.7371 C   0  0  0  0  0  0  0  0  0  0  0  0
   42.6152   82.2989   52.7351 C   0  0  0  0  0  0  0  0  0  0  0  0
   38.0659   81.7215   52.0118 C   0  0  1  0  0  0  0  0  0  0  0  0
   37.6593   82.1393   53.2747 O   0  0  0  0  0  0  0  0  0  0  0  0
   36.9725   82.0138   50.9969 C   0  0  1  0  0  0  0  0  0  0  0  0
   36.0994   82.9761   51.4130 O   0  0  0  0  0  0  0  0  0  0  0  0
   35.1851   82.5919   52.3476 C   0  0  0  0  0  0  0  0  0  0  0  0
   33.9930   82.0264   51.6078 C   0  0  0  0  0  0  0  0  0  0  0  0
   33.1811   82.8098   50.9460 C   0  0  0  0  0  0  0  0  0  0  0  0
   31.7606   82.8075   51.1727 C   0  0  0  0  0  0  0  0  0  0  0  0
   30.8028   82.8789   50.1957 C   0  0  0  0  0  0  0  0  0  0  0  0
   29.4313   82.8720   50.4852 C   0  0  0  0  0  0  0  0  0  0  0  0
   28.9938   82.7918   51.7871 C   0  0  0  0  0  0  0  0  0  0  0  0
   27.6638   82.7862   52.0482 F   0  0  0  0  0  0  0  0  0  0  0  0
   29.9470   82.7196   52.7766 C   0  0  0  0  0  0  0  0  0  0  0  0
   31.2935   82.7266   52.4890 C   0  0  0  0  0  0  0  0  0  0  0  0
   37.6190   82.2895   49.6568 C   0  0  2  0  0  0  0  0  0  0  0  0
   36.7609   81.8521   48.6513 O   0  0  0  0  0  0  0  0  0  0  0  0
  1  2  1  0
  3  2  1  6
  3  4  1  0
  4  5  1  0
  5  6  1  1
  6  7  1  0
  7  8  2  0
  8  9  1  0
  9 10  2  0
 10 11  1  0
 10 12  1  0
 12 13  2  0
  5 14  1  0
 14 15  1  1
 14 16  1  0
 16 17  1  1
 17 18  1  0
 18 19  1  0
 19 20  2  0
 20 21  1  0
 21 22  2  0
 22 23  1  0
 23 24  2  0
 24 25  1  0
 24 26  1  0
 26 27  2  0
 16 28  1  0
 28 29  1  6
 28  3  1  0
 13  7  1  0
 27 21  1  0
M  END
$$$$
