
     RDKit          3D

 23 24  0  0  0  0  0  0  0  0999 V2000
   -7.3967   64.8204   31.7293 C   0  0  0  0  0  0  0  0  0  0  0  0
   -6.1669   64.1631   31.5719 O   0  0  0  0  0  0  0  0  0  0  0  0
   -4.9753   64.8293   31.7583 C   0  0  0  0  0  0  0  0  0  0  0  0
   -4.9472   66.1860   32.0005 C   0  0  0  0  0  0  0  0  0  0  0  0
   -3.7246   66.8190   32.1828 C   0  0  0  0  0  0  0  0  0  0  0  0
   -3.3401   68.0773   32.4280 N   0  0  0  0  0  0  0  0  0  0  0  0
   -1.9976   68.0779   32.5050 C   0  0  0  0  0  0  0  0  0  0  0  0
   -1.5035   66.8592   32.3172 N   0  0  0  0  0  0  0  0  0  0  0  0
   -2.5748   66.0604   32.1142 C   0  0  0  0  0  0  0  0  0  0  0  0
   -2.6054   64.6829   31.8681 C   0  0  0  0  0  0  0  0  0  0  0  0
   -3.8100   64.0741   31.6912 C   0  0  0  0  0  0  0  0  0  0  0  0
   -3.8812   62.7176   31.4465 O   0  0  0  0  0  0  0  0  0  0  0  0
   -3.3583   62.2202   30.2361 C   0  0  0  0  0  0  0  0  0  0  0  0
   -3.4294   60.6949   30.2049 C   0  0  0  0  0  0  0  0  0  0  0  0
   -3.4351   60.3165   28.8853 O   0  0  0  0  0  0  0  0  0  0  0  0
   -4.7084   60.3008   30.8690 C   0  0  0  0  0  0  0  0  0  0  0  0
   -5.4751   59.2353   30.1494 C   0  0  0  0  0  0  0  0  0  0  0  0
   -4.7335   57.9161   30.3948 C   0  0  0  0  0  0  0  0  0  0  0  0
   -6.8696   59.0591   30.6538 C   0  0  0  0  0  0  0  0  0  0  0  0
   -2.2008   60.1887   30.9030 C   0  0  0  0  0  0  0  0  0  0  0  0
   -2.1728   58.8018   30.6969 F   0  0  0  0  0  0  0  0  0  0  0  0
   -1.0396   60.6857   30.3975 F   0  0  0  0  0  0  0  0  0  0  0  0
   -2.3008   60.3402   32.2854 F   0  0  0  0  0  0  0  0  0  0  0  0
  1  2  1  0
  2  3  1  0
  3  4  2  0
  4  5  1  0
  5  6  1  0
  6  7  2  0
  7  8  1  0
  8  9  1  0
  9 10  1  0
 10 11  2  0
 11 12  1  0
 12 13  1  0
 13 14  1  0
 14 15  1  0
 14 16  1  0
 16 17  1  0
 17 18  1  0
 17 19  1  0
 14 20  1  0
 20 21  1  0
 20 22  1  0
 20 23  1  0
 11  3  1  0
  9  5  2  0
M  END
$$$$
