
     RDKit          3D

 17 19  0  0  0  0  0  0  0  0999 V2000
   12.2317   57.1659   10.8710 C   0  0  0  0  0  0  0  0  0  0  0  0
   12.2643   58.4418   11.5867 N   0  0  0  0  0  0  0  0  0  0  0  0
   11.2788   59.3134   11.5181 N   0  0  0  0  0  0  0  0  0  0  0  0
   11.5662   60.4065   12.2720 C   0  0  0  0  0  0  0  0  0  0  0  0
   10.7733   61.5658   12.4675 N   0  0  0  0  0  0  0  0  0  0  0  0
   12.8152   60.1328   12.8117 C   0  0  0  0  0  0  0  0  0  0  0  0
   13.2554   58.8984   12.3821 C   0  0  0  0  0  0  0  0  0  0  0  0
   14.4818   58.2192   12.6914 N   0  0  0  0  0  0  0  0  0  0  0  0
   15.7314   58.5529   12.0408 C   0  0  0  0  0  0  0  0  0  0  0  0
   16.5858   57.3817   11.7552 C   0  0  0  0  0  0  0  0  0  0  0  0
   16.3350   56.1727   12.5492 C   0  0  0  0  0  0  0  0  0  0  0  0
   17.1772   55.0755   12.3664 C   0  0  0  0  0  0  0  0  0  0  0  0
   16.9944   53.9145   13.0784 C   0  0  0  0  0  0  0  0  0  0  0  0
   15.9699   53.7858   14.0044 C   0  0  0  0  0  0  0  0  0  0  0  0
   15.1410   54.8656   14.1844 C   0  0  0  0  0  0  0  0  0  0  0  0
   15.3247   56.0532   13.4589 C   0  0  0  0  0  0  0  0  0  0  0  0
   14.4077   57.1822   13.6928 C   0  0  0  0  0  0  0  0  0  0  0  0
  1  2  1  0
  2  3  1  0
  3  4  2  0
  4  5  1  0
  4  6  1  0
  6  7  2  0
  7  8  1  0
  8  9  1  0
  9 10  1  0
 10 11  1  0
 11 12  2  0
 12 13  1  0
 13 14  2  0
 14 15  1  0
 15 16  2  0
 16 17  1  0
  7  2  1  0
 17  8  1  0
 16 11  1  0
M  END
$$$$
