
     RDKit          3D

 25 27  0  0  0  0  0  0  0  0999 V2000
   13.2382   50.5325   17.2420 C   0  0  0  0  0  0  0  0  0  0  0  0
   14.6967   50.7821   17.0022 C   0  0  0  0  0  0  0  0  0  0  0  0
   15.0999   51.6541   16.0189 C   0  0  0  0  0  0  0  0  0  0  0  0
   16.4164   51.9413   15.7354 C   0  0  0  0  0  0  0  0  0  0  0  0
   16.6946   52.8802   14.6591 C   0  0  0  0  0  0  0  0  0  0  0  0
   17.8871   53.1632   14.3792 O   0  0  0  0  0  0  0  0  0  0  0  0
   15.7046   53.5206   13.8787 N   0  0  0  0  0  0  0  0  0  0  0  0
   15.9272   54.4759   12.8334 C   0  0  0  0  0  0  0  0  0  0  0  0
   15.3745   55.8150   13.1524 C   0  0  0  0  0  0  0  0  0  0  0  0
   15.8073   56.6306   14.1613 C   0  0  0  0  0  0  0  0  0  0  0  0
   15.1891   57.8621   14.3599 C   0  0  0  0  0  0  0  0  0  0  0  0
   14.1380   58.2852   13.5539 C   0  0  0  0  0  0  0  0  0  0  0  0
   13.7008   57.4714   12.5414 C   0  0  0  0  0  0  0  0  0  0  0  0
   12.5992   57.8440   11.6512 C   0  0  0  0  0  0  0  0  0  0  0  0
   11.9615   59.1053   11.7826 N   0  0  0  0  0  0  0  0  0  0  0  0
   12.1814   57.0749   10.7504 O   0  0  0  0  0  0  0  0  0  0  0  0
   14.3271   56.2653   12.3688 C   0  0  0  0  0  0  0  0  0  0  0  0
   17.3802   51.3167   16.4826 C   0  0  0  0  0  0  0  0  0  0  0  0
   17.0093   50.4318   17.4815 C   0  0  0  0  0  0  0  0  0  0  0  0
   15.6733   50.1575   17.7492 C   0  0  0  0  0  0  0  0  0  0  0  0
   15.3268   49.2370   18.7854 N   0  0  0  0  0  0  0  0  0  0  0  0
   15.5819   49.3531   20.1097 C   0  0  0  0  0  0  0  0  0  0  0  0
   15.0982   48.2841   20.7642 N   0  0  0  0  0  0  0  0  0  0  0  0
   14.5465   47.5103   19.8501 N   0  0  0  0  0  0  0  0  0  0  0  0
   14.6821   48.0772   18.6696 N   0  0  0  0  0  0  0  0  0  0  0  0
  1  2  1  0
  2  3  2  0
  3  4  1  0
  4  5  1  0
  5  6  2  0
  5  7  1  0
  7  8  1  0
  8  9  1  0
  9 10  2  0
 10 11  1  0
 11 12  2  0
 12 13  1  0
 13 14  1  0
 14 15  1  0
 14 16  2  0
 13 17  2  0
  4 18  2  0
 18 19  1  0
 19 20  2  0
 20 21  1  0
 21 22  1  0
 22 23  2  0
 23 24  1  0
 24 25  2  0
 20  2  1  0
 25 21  1  0
 17  9  1  0
M  END
$$$$
