
     RDKit          3D

 26 28  0  0  0  0  0  0  0  0999 V2000
   16.9297  100.9874   47.0540 C   0  0  0  0  0  0  0  0  0  0  0  0
   17.0517   99.9238   48.1498 C   0  0  0  0  0  0  0  0  0  0  0  0
   17.6398  100.5134   49.3230 N   0  0  0  0  0  0  0  0  0  0  0  0
   16.9336  100.5131   50.5377 C   0  0  0  0  0  0  0  0  0  0  0  0
   15.7976   99.9219   50.5633 O   0  0  0  0  0  0  0  0  0  0  0  0
   17.4027  101.1236   51.7235 N   0  0  0  0  0  0  0  0  0  0  0  0
   16.6530  100.8946   52.9275 C   0  0  0  0  0  0  0  0  0  0  0  0
   16.6063  101.1030   54.0788 N   0  0  0  0  0  0  0  0  0  0  0  0
   15.7437  100.7403   54.9843 C   0  0  0  0  0  0  0  0  0  0  0  0
   15.6970  100.9960   56.3671 C   0  0  0  0  0  0  0  0  0  0  0  0
   14.6616  100.4940   57.1381 C   0  0  0  0  0  0  0  0  0  0  0  0
   13.6561   99.7476   56.6432 C   0  0  0  0  0  0  0  0  0  0  0  0
   12.5343   99.2457   57.3899 C   0  0  0  0  0  0  0  0  0  0  0  0
   12.7545   98.0146   58.0861 C   0  0  0  0  0  0  0  0  0  0  0  0
   11.7998   97.4617   58.8589 C   0  0  0  0  0  0  0  0  0  0  0  0
   12.0884   96.2604   59.5061 O   0  0  0  0  0  0  0  0  0  0  0  0
   13.3008   96.1619   60.2691 C   0  0  0  0  0  0  0  0  0  0  0  0
   10.5866   98.0943   58.9816 C   0  0  0  0  0  0  0  0  0  0  0  0
   10.3284   99.2749   58.3356 C   0  0  0  0  0  0  0  0  0  0  0  0
   11.3258   99.8578   57.5260 C   0  0  0  0  0  0  0  0  0  0  0  0
   11.0330  101.0956   56.9230 N   0  0  0  0  0  0  0  0  0  0  0  0
   11.4079  101.4614   55.5558 C   0  0  0  0  0  0  0  0  0  0  0  0
   10.2718  102.0707   57.6778 C   0  0  0  0  0  0  0  0  0  0  0  0
   13.7050   99.5011   55.2903 N   0  0  0  0  0  0  0  0  0  0  0  0
   14.6847   99.9758   54.5543 C   0  0  0  0  0  0  0  0  0  0  0  0
   15.0744   99.8528   52.7592 S   0  0  0  0  0  0  0  0  0  0  0  0
  1  2  1  0
  2  3  1  0
  3  4  1  0
  4  5  2  0
  4  6  1  0
  6  7  1  0
  7  8  2  0
  8  9  1  0
  9 10  2  0
 10 11  1  0
 11 12  2  0
 12 13  1  0
 13 14  2  0
 14 15  1  0
 15 16  1  0
 16 17  1  0
 15 18  2  0
 18 19  1  0
 19 20  2  0
 20 21  1  0
 21 22  1  0
 21 23  1  0
 12 24  1  0
 24 25  2  0
 25 26  1  0
 26  7  1  0
 25  9  1  0
 20 13  1  0
M  END
$$$$
