
     RDKit          3D

 19 21  0  0  0  0  0  0  0  0999 V2000
   10.3707   57.9941   11.2340 N   0  0  0  0  0  0  0  0  0  0  0  0
   11.4320   58.8500   11.5994 C   0  0  0  0  0  0  0  0  0  0  0  0
   11.3255   60.1737   11.3328 N   0  0  0  0  0  0  0  0  0  0  0  0
   12.2751   61.0536   11.6411 C   0  0  0  0  0  0  0  0  0  0  0  0
   13.4199   60.5994   12.2599 C   0  0  0  0  0  0  0  0  0  0  0  0
   13.5684   59.2440   12.5517 C   0  0  0  0  0  0  0  0  0  0  0  0
   14.7705   58.7384   13.2062 C   0  0  0  0  0  0  0  0  0  0  0  0
   15.8278   59.6048   13.3858 C   0  0  0  0  0  0  0  0  0  0  0  0
   17.0082   59.1811   14.0065 C   0  0  0  0  0  0  0  0  0  0  0  0
   17.0358   57.9010   14.4046 N   0  0  0  0  0  0  0  0  0  0  0  0
   16.0197   57.0421   14.2399 C   0  0  0  0  0  0  0  0  0  0  0  0
   16.1429   55.7047   14.6952 N   0  0  0  0  0  0  0  0  0  0  0  0
   17.3576   55.2160   15.3164 C   0  0  0  0  0  0  0  0  0  0  0  0
   17.8146   53.9867   14.5304 C   0  0  0  0  0  0  0  0  0  0  0  0
   16.6734   52.9739   14.5747 C   0  0  0  0  0  0  0  0  0  0  0  0
   15.5328   53.5808   13.7798 C   0  0  0  0  0  0  0  0  0  0  0  0
   15.0395   54.7791   14.5481 C   0  0  0  0  0  0  0  0  0  0  0  0
   14.8911   57.4910   13.6332 N   0  0  0  0  0  0  0  0  0  0  0  0
   12.5611   58.4396   12.2036 N   0  0  0  0  0  0  0  0  0  0  0  0
  1  2  1  0
  2  3  2  0
  3  4  1  0
  4  5  2  0
  5  6  1  0
  6  7  1  0
  7  8  2  0
  8  9  1  0
  9 10  2  0
 10 11  1  0
 11 12  1  0
 12 13  1  0
 13 14  1  0
 14 15  1  0
 15 16  1  0
 16 17  1  0
 11 18  2  0
  6 19  2  0
 19  2  1  0
 18  7  1  0
 17 12  1  0
M  END
$$$$
