
     RDKit          3D

 24 26  0  0  0  0  0  0  0  0999 V2000
   14.0642   60.1613   14.7821 O   0  0  0  0  0  0  0  0  0  0  0  0
   14.1383   59.4247   13.7874 C   0  0  0  0  0  0  0  0  0  0  0  0
   14.2454   59.7022   12.4014 N   0  0  0  0  0  0  0  0  0  0  0  0
   14.7153   58.6744   11.6005 C   0  0  0  0  0  0  0  0  0  0  0  0
   14.8568   58.8050   10.3249 O   0  0  0  0  0  0  0  0  0  0  0  0
   15.0425   57.4304   12.2815 C   0  0  0  0  0  0  0  0  0  0  0  0
   15.7931   56.4288   11.9205 C   0  0  0  0  0  0  0  0  0  0  0  0
   15.8943   55.2230   12.7415 C   0  0  0  0  0  0  0  0  0  0  0  0
   16.8585   54.2666   12.4621 C   0  0  0  0  0  0  0  0  0  0  0  0
   16.8998   53.1601   13.2553 C   0  0  0  0  0  0  0  0  0  0  0  0
   16.0277   52.9347   14.3318 C   0  0  0  0  0  0  0  0  0  0  0  0
   16.1745   51.7123   15.1157 C   0  0  0  0  0  0  0  0  0  0  0  0
   17.0037   50.8424   14.7009 O   0  0  0  0  0  0  0  0  0  0  0  0
   15.4447   51.4621   16.2940 N   0  0  0  0  0  0  0  0  0  0  0  0
   15.4074   50.2463   17.0218 C   0  0  0  0  0  0  0  0  0  0  0  0
   16.6007   49.5219   17.0960 C   0  0  0  0  0  0  0  0  0  0  0  0
   16.7249   48.3295   17.7599 C   0  0  0  0  0  0  0  0  0  0  0  0
   15.5958   47.8271   18.3876 C   0  0  0  0  0  0  0  0  0  0  0  0
   15.6795   46.6581   19.0484 F   0  0  0  0  0  0  0  0  0  0  0  0
   14.4033   48.4918   18.3482 C   0  0  0  0  0  0  0  0  0  0  0  0
   14.3420   49.7078   17.6521 C   0  0  0  0  0  0  0  0  0  0  0  0
   15.0848   53.8802   14.5971 C   0  0  0  0  0  0  0  0  0  0  0  0
   15.0266   55.0271   13.7907 C   0  0  0  0  0  0  0  0  0  0  0  0
   14.1296   57.6101   13.8438 S   0  0  0  0  0  0  0  0  0  0  0  0
  1  2  2  0
  2  3  1  0
  3  4  1  0
  4  5  2  0
  4  6  1  0
  6  7  2  0
  7  8  1  0
  8  9  2  0
  9 10  1  0
 10 11  2  0
 11 12  1  0
 12 13  2  0
 12 14  1  0
 14 15  1  0
 15 16  2  0
 16 17  1  0
 17 18  2  0
 18 19  1  0
 18 20  1  0
 20 21  2  0
 11 22  1  0
 22 23  2  0
  6 24  1  0
 24  2  1  0
 23  8  1  0
 21 15  1  0
M  END
$$$$
