
     RDKit          3D

 21 22  0  0  0  0  0  0  0  0999 V2000
   35.0761   80.9120   53.0489 C   0  0  0  0  0  0  0  0  0  0  0  0
   35.7684   81.6563   51.8869 C   0  0  0  0  0  0  0  0  0  0  0  0
   35.2009   81.1696   50.6870 N   0  0  0  0  0  0  0  0  0  0  0  0
   33.8882   81.6083   50.3375 C   0  0  0  0  0  0  0  0  0  0  0  0
   33.3807   81.4171   49.0587 C   0  0  0  0  0  0  0  0  0  0  0  0
   32.1190   81.8356   48.6967 C   0  0  0  0  0  0  0  0  0  0  0  0
   31.3048   82.4652   49.5973 C   0  0  0  0  0  0  0  0  0  0  0  0
   31.7737   82.6730   50.8775 C   0  0  0  0  0  0  0  0  0  0  0  0
   30.7421   83.4971   52.1030 S   0  0  0  0  0  0  0  0  0  0  0  0
   30.4132   82.2870   53.4107 C   0  0  0  0  0  0  0  0  0  0  0  0
   30.9836   82.7518   54.5995 F   0  0  0  0  0  0  0  0  0  0  0  0
   29.0553   82.1554   53.6669 F   0  0  0  0  0  0  0  0  0  0  0  0
   33.0506   82.2456   51.2307 C   0  0  0  0  0  0  0  0  0  0  0  0
   37.2217   81.5226   52.0785 C   0  0  0  0  0  0  0  0  0  0  0  0
   37.7312   80.3661   51.7148 O   0  0  0  0  0  0  0  0  0  0  0  0
   38.1648   82.4116   52.5834 N   0  0  0  0  0  0  0  0  0  0  0  0
   39.5368   81.8936   52.8371 C   0  0  0  0  0  0  0  0  0  0  0  0
   40.5197   82.8915   52.2632 C   0  0  0  0  0  0  0  0  0  0  0  0
   40.4184   84.1254   52.9176 O   0  0  0  0  0  0  0  0  0  0  0  0
   39.3066   84.1859   53.7272 C   0  0  0  0  0  0  0  0  0  0  0  0
   38.0287   83.8016   52.9334 C   0  0  0  0  0  0  0  0  0  0  0  0
  1  2  1  0
  2  3  1  0
  3  4  1  0
  4  5  2  0
  5  6  1  0
  6  7  2  0
  7  8  1  0
  8  9  1  0
  9 10  1  0
 10 11  1  0
 10 12  1  0
  8 13  2  0
  2 14  1  0
 14 15  2  0
 14 16  1  0
 16 17  1  0
 17 18  1  0
 18 19  1  0
 19 20  1  0
 20 21  1  0
 13  4  1  0
 21 16  1  0
M  END
$$$$
