
     RDKit          3D

 22 24  0  0  0  0  0  0  0  0999 V2000
   15.9306   91.7815   62.3336 C   0  0  0  0  0  0  0  0  0  0  0  0
   16.0760   92.9650   63.2864 C   0  0  0  0  0  0  0  0  0  0  0  0
   14.6659   93.4526   63.5702 C   0  0  0  0  0  0  0  0  0  0  0  0
   14.5123   94.9163   63.1659 C   0  0  0  0  0  0  0  0  0  0  0  0
   13.2316   95.4274   63.5298 N   0  0  0  0  0  4  0  0  0  0  0  0
   13.3149   96.3498   64.6403 C   0  0  0  0  0  0  0  0  0  0  0  0
   12.5822   96.0535   62.4049 C   0  0  0  0  0  0  0  0  0  0  0  0
   12.7402   97.5571   62.3392 C   0  0  0  0  0  0  0  0  0  0  0  0
   11.8323   98.1319   61.3150 C   0  0  0  0  0  0  0  0  0  0  0  0
   11.4908   99.4651   61.3811 C   0  0  0  0  0  0  0  0  0  0  0  0
   10.6387  100.0457   60.4365 C   0  0  0  0  0  0  0  0  0  0  0  0
   10.1285   99.2969   59.4279 C   0  0  0  0  0  0  0  0  0  0  0  0
   10.4498   97.9708   59.3366 C   0  0  0  0  0  0  0  0  0  0  0  0
   11.2950   97.4024   60.2767 C   0  0  0  0  0  0  0  0  0  0  0  0
   11.2754   95.5530   62.9243 C   0  0  0  0  0  0  0  0  0  0  0  0
   12.1451   94.4938   63.5973 C   0  0  0  0  0  0  0  0  0  0  0  0
   12.3024   93.2633   62.7649 C   0  0  0  0  0  0  0  0  0  0  0  0
   10.9687   92.5237   62.8069 C   0  0  0  0  0  0  0  0  0  0  0  0
   10.8785   91.9511   64.2065 C   0  0  0  0  0  0  0  0  0  0  0  0
   10.7350   93.1090   65.1566 C   0  0  0  0  0  0  0  0  0  0  0  0
   10.8337   92.5967   66.4532 O   0  0  0  0  0  0  0  0  0  0  0  0
   11.7691   94.1646   64.9960 C   0  0  0  0  0  0  0  0  0  0  0  0
  1  2  1  0
  2  3  1  0
  3  4  1  0
  4  5  1  0
  5  6  1  0
  5  7  1  0
  7  8  1  0
  8  9  1  0
  9 10  2  0
 10 11  1  0
 11 12  2  0
 12 13  1  0
 13 14  2  0
  7 15  1  0
 15 16  1  0
 16 17  1  0
 17 18  1  0
 18 19  1  0
 19 20  1  0
 20 21  1  0
 20 22  1  0
 16  5  1  0
 14  9  1  0
 22 16  1  0
M  CHG  1   5   1
M  END
$$$$
