
     RDKit          3D

 28 31  0  0  0  0  0  0  0  0999 V2000
   15.0253   53.5076   15.9187 C   0  0  0  0  0  0  0  0  0  0  0  0
   15.4619   52.9173   14.6792 N   0  0  0  0  0  0  0  0  0  0  0  0
   15.7337   51.5045   14.5799 C   0  0  0  0  0  0  0  0  0  0  0  0
   15.9921   50.9841   15.9501 C   0  0  0  0  0  0  0  0  0  0  0  0
   17.2594   50.7253   16.3935 C   0  0  0  0  0  0  0  0  0  0  0  0
   17.4587   50.2450   17.6664 C   0  0  0  0  0  0  0  0  0  0  0  0
   16.3979   50.0196   18.5047 C   0  0  0  0  0  0  0  0  0  0  0  0
   15.1153   50.2688   18.0909 C   0  0  0  0  0  0  0  0  0  0  0  0
   14.0050   50.0235   18.9943 C   0  0  0  0  0  0  0  0  0  0  0  0
   14.1156   49.0425   20.0122 N   0  0  0  0  0  0  0  0  0  0  0  0
   12.9343   50.6696   18.8929 O   0  0  0  0  0  0  0  0  0  0  0  0
   14.9276   50.7532   16.8045 C   0  0  0  0  0  0  0  0  0  0  0  0
   15.6276   53.7337   13.5387 C   0  0  0  0  0  0  0  0  0  0  0  0
   14.8694   54.8476   13.3164 N   0  0  0  0  0  0  0  0  0  0  0  0
   15.0065   55.6351   12.2456 C   0  0  0  0  0  0  0  0  0  0  0  0
   14.1539   56.8306   12.0598 C   0  0  0  0  0  0  0  0  0  0  0  0
   13.5112   57.4039   13.1343 C   0  0  0  0  0  0  0  0  0  0  0  0
   12.7096   58.5280   12.9592 C   0  0  0  0  0  0  0  0  0  0  0  0
   12.5651   59.0530   11.7330 N   0  0  0  0  0  0  0  0  0  0  0  0
   13.1983   58.4832   10.6923 C   0  0  0  0  0  0  0  0  0  0  0  0
   14.0023   57.3678   10.8232 C   0  0  0  0  0  0  0  0  0  0  0  0
   15.9352   55.3331   11.3243 N   0  0  0  0  0  0  0  0  0  0  0  0
   16.7249   54.2298   11.4919 C   0  0  0  0  0  0  0  0  0  0  0  0
   16.5719   53.4298   12.5987 C   0  0  0  0  0  0  0  0  0  0  0  0
   17.4476   52.2563   12.7368 C   0  0  0  0  0  0  0  0  0  0  0  0
   18.8464   52.7334   12.4084 C   0  0  0  0  0  0  0  0  0  0  0  0
   18.9824   53.3438   11.1248 N   0  0  0  0  0  0  0  0  0  0  0  0
   17.7688   53.8249   10.5228 C   0  0  0  0  0  0  0  0  0  0  0  0
  1  2  1  0
  2  3  1  0
  3  4  1  0
  4  5  2  0
  5  6  1  0
  6  7  2  0
  7  8  1  0
  8  9  1  0
  9 10  1  0
  9 11  2  0
  8 12  2  0
  2 13  1  0
 13 14  2  0
 14 15  1  0
 15 16  1  0
 16 17  2  0
 17 18  1  0
 18 19  2  0
 19 20  1  0
 20 21  2  0
 15 22  2  0
 22 23  1  0
 23 24  2  0
 24 25  1  0
 25 26  1  0
 26 27  1  0
 27 28  1  0
 12  4  1  0
 24 13  1  0
 21 16  1  0
 28 23  1  0
M  END
$$$$
