
     RDKit          3D

 25 28  0  0  0  0  0  0  0  0999 V2000
   28.6263   81.7336   51.2630 C   0  0  0  0  0  0  0  0  0  0  0  0
   30.1033   81.9542   51.2012 C   0  0  0  0  0  0  0  0  0  0  0  0
   30.9353   80.9868   50.6734 C   0  0  0  0  0  0  0  0  0  0  0  0
   32.3009   81.1779   50.6105 C   0  0  0  0  0  0  0  0  0  0  0  0
   32.8903   82.3352   51.0688 C   0  0  0  0  0  0  0  0  0  0  0  0
   34.3472   82.5034   50.9856 C   0  0  0  0  0  0  0  0  0  0  0  0
   35.2466   81.5417   50.7284 N   0  0  0  0  0  0  0  0  0  0  0  0
   36.4942   82.0912   50.7354 C   0  0  0  0  0  0  0  0  0  0  0  0
   37.7848   81.4309   50.5055 C   0  0  0  0  0  0  0  0  0  0  0  0
   38.3951   80.9089   51.7026 N   0  0  0  0  0  0  0  0  0  0  0  0
   37.4616   80.3725   52.6740 C   0  0  0  0  0  0  0  0  0  0  0  0
   38.3451   80.9654   53.7626 C   0  0  0  0  0  0  0  0  0  0  0  0
   39.2654   79.9780   54.2345 N   0  0  0  0  0  0  0  0  0  0  0  0
   39.8689   80.0508   55.4261 C   0  0  0  0  0  0  0  0  0  0  0  0
   40.7638   79.0687   55.8582 C   0  0  0  0  0  0  0  0  0  0  0  0
   41.0386   77.9897   55.0383 C   0  0  0  0  0  0  0  0  0  0  0  0
   40.4128   77.9243   53.8149 C   0  0  0  0  0  0  0  0  0  0  0  0
   40.6650   76.7896   52.8856 C   0  0  0  0  0  0  0  0  0  0  0  0
   39.5393   78.9285   53.4493 C   0  0  0  0  0  0  0  0  0  0  0  0
   38.9858   78.8343   52.3226 O   0  0  0  0  0  0  0  0  0  0  0  0
   38.8128   81.8736   52.6729 C   0  0  0  0  0  0  0  0  0  0  0  0
   36.2920   83.4262   51.0093 C   0  0  0  0  0  0  0  0  0  0  0  0
   34.9952   83.6311   51.1518 O   0  0  0  0  0  0  0  0  0  0  0  0
   32.0769   83.3125   51.5991 C   0  0  0  0  0  0  0  0  0  0  0  0
   30.6961   83.1132   51.6599 C   0  0  0  0  0  0  0  0  0  0  0  0
  1  2  1  0
  2  3  2  0
  3  4  1  0
  4  5  2  0
  5  6  1  0
  6  7  2  0
  7  8  1  0
  8  9  1  0
  9 10  1  0
 10 11  1  0
 11 12  1  0
 12 13  1  0
 13 14  1  0
 14 15  2  0
 15 16  1  0
 16 17  2  0
 17 18  1  0
 17 19  1  0
 19 20  2  0
 12 21  1  0
  8 22  2  0
 22 23  1  0
  5 24  1  0
 24 25  2  0
 25  2  1  0
 23  6  1  0
 21 10  1  0
 19 13  1  0
M  END
$$$$
