
     RDKit          3D

 22 24  0  0  0  0  0  0  0  0999 V2000
   34.0539   81.9285   46.6227 C   0  0  0  0  0  0  0  0  0  0  0  0
   34.4918   81.6055   47.9949 N   0  0  0  0  0  0  0  0  0  0  0  0
   33.4466   81.5322   48.9699 C   0  0  0  0  0  0  0  0  0  0  0  0
   33.0905   82.8602   49.5974 C   0  0  0  0  0  0  0  0  0  0  0  0
   32.0312   82.6940   50.6269 C   0  0  0  0  0  0  0  0  0  0  0  0
   32.2519   81.9297   51.7630 C   0  0  0  0  0  0  0  0  0  0  0  0
   31.2966   81.7494   52.7412 C   0  0  0  0  0  0  0  0  0  0  0  0
   30.0766   82.3559   52.5766 C   0  0  0  0  0  0  0  0  0  0  0  0
   29.8405   83.1274   51.4394 C   0  0  0  0  0  0  0  0  0  0  0  0
   30.7869   83.3122   50.4597 C   0  0  0  0  0  0  0  0  0  0  0  0
   35.8730   81.4181   48.2015 C   0  0  0  0  0  0  0  0  0  0  0  0
   36.6389   81.7189   47.2037 O   0  0  0  0  0  0  0  0  0  0  0  0
   36.5051   80.9130   49.4467 C   0  0  0  0  0  0  0  0  0  0  0  0
   37.9701   80.5962   49.2354 C   0  0  0  0  0  0  0  0  0  0  0  0
   38.8408   81.4124   50.0537 N   0  0  0  0  0  0  0  0  0  0  0  0
   38.4523   81.8553   51.3307 C   0  0  0  0  0  0  0  0  0  0  0  0
   39.3824   82.1505   52.3339 C   0  0  0  0  0  0  0  0  0  0  0  0
   38.9981   82.5848   53.5857 C   0  0  0  0  0  0  0  0  0  0  0  0
   37.6376   82.7144   53.7999 C   0  0  0  0  0  0  0  0  0  0  0  0
   36.7126   82.4266   52.8195 C   0  0  0  0  0  0  0  0  0  0  0  0
   37.1029   81.9991   51.5888 C   0  0  0  0  0  0  0  0  0  0  0  0
   36.2395   81.6913   50.5560 O   0  0  0  0  0  0  0  0  0  0  0  0
  1  2  1  0
  2  3  1  0
  3  4  1  0
  4  5  1  0
  5  6  2  0
  6  7  1  0
  7  8  2  0
  8  9  1  0
  9 10  2  0
  2 11  1  0
 11 12  2  0
 11 13  1  0
 13 14  1  0
 14 15  1  0
 15 16  1  0
 16 17  2  0
 17 18  1  0
 18 19  2  0
 19 20  1  0
 20 21  2  0
 21 22  1  0
 10  5  1  0
 22 13  1  0
 21 16  1  0
M  END
$$$$
