
     RDKit          3D

 26 27  0  0  0  0  0  0  0  0999 V2000
  -14.0413   56.5299   35.1933 C   0  0  0  0  0  0  0  0  0  0  0  0
  -12.5664   56.6404   35.5682 C   0  0  0  0  0  0  0  0  0  0  0  0
  -11.8060   55.8900   34.4891 C   0  0  0  0  0  0  0  0  0  0  0  0
  -12.6817   54.7805   33.9733 C   0  0  0  0  0  0  0  0  0  0  0  0
  -11.4734   56.8214   33.3844 N   0  0  0  0  0  0  0  0  0  0  0  0
  -10.1422   57.2028   33.1427 C   0  0  0  0  0  0  0  0  0  0  0  0
   -9.2507   56.8248   33.9980 O   0  0  0  0  0  0  0  0  0  0  0  0
   -9.6999   57.9847   32.0102 C   0  0  0  0  0  0  0  0  0  0  0  0
   -8.5414   58.7691   32.1361 C   0  0  0  0  0  0  0  0  0  0  0  0
   -8.0530   59.5278   31.1419 N   0  0  0  0  0  0  0  0  0  0  0  0
   -6.8373   60.3243   31.3243 C   0  0  0  0  0  0  0  0  0  0  0  0
   -5.6118   59.6295   30.9475 C   0  0  0  0  0  0  0  0  0  0  0  0
   -5.5977   58.6299   29.9815 C   0  0  0  0  0  0  0  0  0  0  0  0
   -4.4163   57.9850   29.6496 C   0  0  0  0  0  0  0  0  0  0  0  0
   -3.2395   58.3259   30.2726 C   0  0  0  0  0  0  0  0  0  0  0  0
   -3.2295   59.3106   31.2302 C   0  0  0  0  0  0  0  0  0  0  0  0
   -1.9624   59.6924   31.9153 C   0  0  0  0  0  0  0  0  0  0  0  0
   -4.4218   59.9429   31.5473 C   0  0  0  0  0  0  0  0  0  0  0  0
   -8.6817   59.5587   29.9573 C   0  0  0  0  0  0  0  0  0  0  0  0
   -8.2503   60.2595   29.0064 O   0  0  0  0  0  0  0  0  0  0  0  0
   -9.8129   58.8112   29.7890 N   0  0  0  0  0  0  0  0  0  0  0  0
  -10.4753   58.8600   28.5006 C   0  0  0  0  0  0  0  0  0  0  0  0
  -11.7732   59.6289   28.5569 C   0  0  0  0  0  0  0  0  0  0  0  0
  -10.7445   57.4715   27.9584 C   0  0  0  0  0  0  0  0  0  0  0  0
  -10.3038   58.0504   30.7837 C   0  0  0  0  0  0  0  0  0  0  0  0
  -11.3423   57.4087   30.5204 O   0  0  0  0  0  0  0  0  0  0  0  0
  1  2  1  0
  2  3  1  0
  3  4  1  0
  3  5  1  0
  5  6  1  0
  6  7  2  0
  6  8  1  0
  8  9  2  0
  9 10  1  0
 10 11  1  0
 11 12  1  0
 12 13  2  0
 13 14  1  0
 14 15  2  0
 15 16  1  0
 16 17  1  0
 16 18  2  0
 10 19  1  0
 19 20  2  0
 19 21  1  0
 21 22  1  0
 22 23  1  0
 22 24  1  0
 21 25  1  0
 25 26  2  0
 25  8  1  0
 18 12  1  0
M  END
$$$$
