
     RDKit          3D

 28 29  0  0  0  0  0  0  0  0999 V2000
   43.4811   81.8128   57.8908 C   0  0  0  0  0  0  0  0  0  0  0  0
   42.2329   81.2226   57.6898 O   0  0  0  0  0  0  0  0  0  0  0  0
   41.5649   81.2430   56.4675 C   0  0  0  0  0  0  0  0  0  0  0  0
   42.0740   81.8488   55.3379 C   0  0  0  0  0  0  0  0  0  0  0  0
   41.3812   81.8473   54.1472 C   0  0  0  0  0  0  0  0  0  0  0  0
   40.1418   81.2383   54.0272 C   0  0  0  0  0  0  0  0  0  0  0  0
   39.4581   81.2474   52.8206 O   0  0  0  0  0  0  0  0  0  0  0  0
   40.0617   81.8965   51.7195 C   0  0  0  0  0  0  0  0  0  0  0  0
   39.2248   81.8477   50.4841 C   0  0  0  0  0  0  0  0  0  0  0  0
   38.9390   80.5992   50.0127 O   0  0  0  0  0  0  0  0  0  0  0  0
   38.0019   82.6991   50.7296 C   0  0  0  0  0  0  0  0  0  0  0  0
   37.0967   82.1357   51.6731 N   0  0  0  0  0  0  0  0  0  0  0  0
   36.4126   80.9601   51.2525 C   0  0  0  0  0  0  0  0  0  0  0  0
   34.9332   80.9689   51.5840 C   0  0  0  0  0  0  0  0  0  0  0  0
   34.3560   82.1234   50.9370 N   0  0  0  0  0  0  0  0  0  0  0  0
   33.1152   82.1630   50.2796 C   0  0  0  0  0  0  0  0  0  0  0  0
   33.1038   82.5070   48.9480 C   0  0  0  0  0  0  0  0  0  0  0  0
   31.9460   82.5834   48.1997 C   0  0  0  0  0  0  0  0  0  0  0  0
   30.7424   82.3061   48.7987 C   0  0  0  0  0  0  0  0  0  0  0  0
   30.7259   81.9536   50.1512 C   0  0  0  0  0  0  0  0  0  0  0  0
   31.8982   81.8849   50.8743 C   0  0  0  0  0  0  0  0  0  0  0  0
   31.9119   81.5402   52.2081 O   0  0  0  0  0  0  0  0  0  0  0  0
   30.6964   81.2475   52.8585 C   0  0  0  0  0  0  0  0  0  0  0  0
   35.1423   83.3392   50.9826 C   0  0  0  0  0  0  0  0  0  0  0  0
   36.1579   83.1509   52.0877 C   0  0  0  0  0  0  0  0  0  0  0  0
   39.6339   80.6318   55.1607 C   0  0  0  0  0  0  0  0  0  0  0  0
   40.3324   80.6362   56.3512 C   0  0  0  0  0  0  0  0  0  0  0  0
   37.4536   81.9234   52.6967 Cl  0  0  0  0  0  0  0  0  0  0  0  0
  1  2  1  0
  2  3  1  0
  3  4  2  0
  4  5  1  0
  5  6  2  0
  6  7  1  0
  7  8  1  0
  8  9  1  0
  9 10  1  0
  9 11  1  0
 11 12  1  0
 12 13  1  0
 13 14  1  0
 14 15  1  0
 15 16  1  0
 16 17  2  0
 17 18  1  0
 18 19  2  0
 19 20  1  0
 20 21  2  0
 21 22  1  0
 22 23  1  0
 15 24  1  0
 24 25  1  0
  6 26  1  0
 26 27  2  0
 27  3  1  0
 25 12  1  0
 21 16  1  0
M  END
$$$$
