
     RDKit          3D

 20 20  0  0  0  0  0  0  0  0999 V2000
   14.2415   47.7684   19.8714 C   0  0  0  0  0  0  0  0  0  0  0  0
   14.6116   48.5445   18.6607 C   0  0  0  0  0  0  0  0  0  0  0  0
   14.6087   49.7881   18.5931 O   0  0  0  0  0  0  0  0  0  0  0  0
   14.9973   47.8210   17.4934 N   0  0  0  0  0  0  0  0  0  0  0  0
   15.3906   48.4735   16.2798 C   0  0  0  0  0  0  0  0  0  0  0  0
   15.8553   49.8504   16.4071 C   0  0  0  0  0  0  0  0  0  0  0  0
   15.0026   50.8141   16.3502 O   0  0  0  0  0  0  0  0  0  0  0  0
   17.1914   50.2906   16.5950 N   0  0  0  0  0  0  0  0  0  0  0  0
   17.7581   51.3834   15.8355 C   0  0  0  0  0  0  0  0  0  0  0  0
   16.7203   52.1351   15.0832 C   0  0  0  0  0  0  0  0  0  0  0  0
   15.6116   52.4589   15.5378 O   0  0  0  0  0  0  0  0  0  0  0  0
   17.0366   52.5027   13.7454 N   0  0  0  0  0  0  0  0  0  0  0  0
   16.4979   53.6388   13.0994 C   0  0  0  0  0  0  0  0  0  0  0  0
   16.9176   53.9410   11.8282 C   0  0  0  0  0  0  0  0  0  0  0  0
   16.4232   55.0491   11.1375 C   0  0  0  0  0  0  0  0  0  0  0  0
   15.4901   55.8524   11.7592 C   0  0  0  0  0  0  0  0  0  0  0  0
   14.7693   57.3858   10.8750 Br  0  0  0  0  0  0  0  0  0  0  0  0
   15.0523   55.5768   13.0261 C   0  0  0  0  0  0  0  0  0  0  0  0
   14.0574   56.4227   13.7045 C   0  0  0  0  0  0  0  0  0  0  0  0
   15.5688   54.4575   13.6902 C   0  0  0  0  0  0  0  0  0  0  0  0
  1  2  1  0
  2  3  2  0
  2  4  1  0
  4  5  1  0
  5  6  1  0
  6  7  2  0
  6  8  1  0
  8  9  1  0
  9 10  1  0
 10 11  2  0
 10 12  1  0
 12 13  1  0
 13 14  2  0
 14 15  1  0
 15 16  2  0
 16 17  1  0
 16 18  1  0
 18 19  1  0
 18 20  2  0
 20 13  1  0
M  END
$$$$
