
     RDKit          3D

 22 23  0  0  0  0  0  0  0  0999 V2000
   38.8544   81.1055   54.6207 C   0  0  0  0  0  0  0  0  0  0  0  0
   37.7887   80.8412   53.5242 C   0  0  0  0  0  0  0  0  0  0  0  0
   37.9642   81.8423   52.4355 C   0  0  0  0  0  0  0  0  0  0  0  0
   37.0252   81.7858   51.4145 N   0  0  0  0  0  0  0  0  0  0  0  0
   35.6702   81.8537   51.6124 C   0  0  0  0  0  0  0  0  0  0  0  0
   34.8454   82.9787   51.0588 C   0  0  0  0  0  0  0  0  0  0  0  0
   33.4094   82.4857   51.1669 C   0  0  0  0  0  0  0  0  0  0  0  0
   32.7889   81.8262   50.1570 C   0  0  0  0  0  0  0  0  0  0  0  0
   31.4694   81.4128   50.3360 C   0  0  0  0  0  0  0  0  0  0  0  0
   30.8083   81.6736   51.5272 C   0  0  0  0  0  0  0  0  0  0  0  0
   29.5011   81.2417   51.6574 O   0  0  0  0  0  0  0  0  0  0  0  0
   28.7897   80.6216   50.6312 C   0  0  0  0  0  0  0  0  0  0  0  0
   31.4474   82.3422   52.5397 C   0  0  0  0  0  0  0  0  0  0  0  0
   30.8103   82.6022   53.6987 F   0  0  0  0  0  0  0  0  0  0  0  0
   32.7517   82.7451   52.3477 C   0  0  0  0  0  0  0  0  0  0  0  0
   37.5684   82.0765   50.1315 C   0  0  2  0  0  0  0  0  0  0  0  0
   37.7897   80.8210   49.2941 C   0  0  0  0  0  3  0  0  0  0  0  0
   38.9797   81.0417   48.3506 C   0  0  0  0  0  0  0  0  0  0  0  0
   40.2110   81.1279   49.0869 N   0  0  0  0  0  0  0  0  0  0  0  0
   41.1563   82.0493   48.4811 C   0  0  0  0  0  0  0  0  0  0  0  0
   39.9352   81.5941   50.4245 C   0  0  0  0  0  0  0  0  0  0  0  0
   38.9205   82.7221   50.2977 C   0  0  0  0  0  0  0  0  0  0  0  0
  1  2  1  0
  2  3  1  0
  3  4  1  0
  4  5  1  0
  5  6  1  0
  6  7  1  0
  7  8  2  0
  8  9  1  0
  9 10  2  0
 10 11  1  0
 11 12  1  0
 10 13  1  0
 13 14  1  0
 13 15  2  0
 16  4  1  1
 16 17  1  0
 17 18  1  0
 18 19  1  0
 19 20  1  0
 19 21  1  0
 21 22  1  0
 15  7  1  0
 22 16  1  0
M  RAD  1  17   2
M  END
$$$$
