
     RDKit          3D

 22 24  0  0  0  0  0  0  0  0999 V2000
   10.7371   93.5293   64.0200 C   0  0  0  0  0  0  0  0  0  0  0  0
   12.1542   93.4891   63.6143 C   0  0  0  0  0  0  0  0  0  0  0  0
   13.0840   92.5409   63.8212 N   0  0  0  0  0  0  0  0  0  0  0  0
   14.2340   92.9222   63.2795 N   0  0  0  0  0  0  0  0  0  0  0  0
   14.0581   94.1130   62.7218 C   0  0  0  0  0  0  0  0  0  0  0  0
   12.7541   94.5204   62.9050 C   0  0  0  0  0  0  0  0  0  0  0  0
   12.2115   95.7852   62.4203 C   0  0  0  0  0  0  0  0  0  0  0  0
   11.7325   95.7661   61.0781 N   0  0  0  0  0  0  0  0  0  0  0  0
   12.1281   96.6991   60.0839 C   0  0  0  0  0  0  0  0  0  0  0  0
   13.3488   96.9843   59.9959 O   0  0  0  0  0  0  0  0  0  0  0  0
   11.1820   97.3109   59.1953 N   0  0  0  0  0  0  0  0  0  0  0  0
   11.6023   98.1106   58.0897 C   0  0  0  0  0  0  0  0  0  0  0  0
   12.8394   98.6192   57.8217 C   0  0  0  0  0  0  0  0  0  0  0  0
   12.7367   99.3155   56.6529 C   0  0  0  0  0  0  0  0  0  0  0  0
   13.7861  100.0537   55.9311 C   0  0  0  0  0  0  0  0  0  0  0  0
   15.0396  100.1889   56.4906 C   0  0  0  0  0  0  0  0  0  0  0  0
   16.0324  100.8911   55.8066 C   0  0  0  0  0  0  0  0  0  0  0  0
   15.7545  101.4200   54.6237 N   0  0  0  0  0  0  0  0  0  0  0  0
   14.5473  101.3139   54.0388 C   0  0  0  0  0  0  0  0  0  0  0  0
   13.5488  100.6216   54.7006 C   0  0  0  0  0  0  0  0  0  0  0  0
   11.4613   99.2109   56.2521 N   0  0  0  0  0  0  0  0  0  0  0  0
   10.7541   98.4906   57.0980 N   0  0  0  0  0  0  0  0  0  0  0  0
  1  2  1  0
  2  3  1  0
  3  4  1  0
  4  5  2  0
  5  6  1  0
  6  7  1  0
  7  8  1  0
  8  9  1  0
  9 10  2  0
  9 11  1  0
 11 12  1  0
 12 13  2  0
 13 14  1  0
 14 15  1  0
 15 16  2  0
 16 17  1  0
 17 18  2  0
 18 19  1  0
 19 20  2  0
 14 21  2  0
 21 22  1  0
  6  2  2  0
 22 12  1  0
 20 15  1  0
M  END
$$$$
