
     RDKit          3D

 26 29  0  0  0  0  0  0  0  0999 V2000
   16.5469   59.0829   14.6268 N   0  0  0  0  0  0  0  0  0  0  0  0
   15.7681   58.7194   13.8752 C   0  0  0  0  0  0  0  0  0  0  0  0
   14.7929   58.2422   12.9373 C   0  0  0  0  0  0  0  0  0  0  0  0
   13.8810   59.1125   12.3752 C   0  0  0  0  0  0  0  0  0  0  0  0
   12.9457   58.6627   11.4765 C   0  0  0  0  0  0  0  0  0  0  0  0
   12.9489   57.3248   11.1578 C   0  0  0  0  0  0  0  0  0  0  0  0
   13.8736   56.4556   11.7307 C   0  0  0  0  0  0  0  0  0  0  0  0
   14.8152   56.8973   12.6330 C   0  0  0  0  0  0  0  0  0  0  0  0
   15.7878   55.9969   13.2401 C   0  0  0  0  0  0  0  0  0  0  0  0
   17.0884   56.2444   13.4821 N   0  0  0  0  0  0  0  0  0  0  0  0
   17.6594   55.2159   14.0353 O   0  0  0  0  0  0  0  0  0  0  0  0
   16.7467   54.2641   14.1712 C   0  0  0  0  0  0  0  0  0  0  0  0
   17.0799   52.9494   14.7752 C   0  0  0  0  0  0  0  0  0  0  0  0
   15.8859   52.2091   15.0111 O   0  0  0  0  0  0  0  0  0  0  0  0
   15.9112   51.2160   15.9855 C   0  0  0  0  0  0  0  0  0  0  0  0
   17.1056   50.7841   16.5239 C   0  0  0  0  0  0  0  0  0  0  0  0
   17.1460   49.7978   17.4931 C   0  0  0  0  0  0  0  0  0  0  0  0
   15.9890   49.2005   17.9655 C   0  0  0  0  0  0  0  0  0  0  0  0
   16.0529   48.1886   18.9621 N   0  0  0  0  0  0  0  0  0  0  0  0
   17.1877   47.6753   19.4677 C   0  0  0  0  0  0  0  0  0  0  0  0
   16.9070   46.7386   20.3903 N   0  0  0  0  0  0  0  0  0  0  0  0
   15.5887   46.6847   20.4434 N   0  0  0  0  0  0  0  0  0  0  0  0
   15.0694   47.5591   19.5822 N   0  0  0  0  0  0  0  0  0  0  0  0
   14.8003   49.6372   17.4227 C   0  0  0  0  0  0  0  0  0  0  0  0
   14.7524   50.6196   16.4567 C   0  0  0  0  0  0  0  0  0  0  0  0
   15.5886   54.7419   13.6813 N   0  0  0  0  0  0  0  0  0  0  0  0
  1  2  3  0
  2  3  1  0
  3  4  2  0
  4  5  1  0
  5  6  2  0
  6  7  1  0
  7  8  2  0
  8  9  1  0
  9 10  2  0
 10 11  1  0
 11 12  1  0
 12 13  1  0
 13 14  1  0
 14 15  1  0
 15 16  2  0
 16 17  1  0
 17 18  2  0
 18 19  1  0
 19 20  1  0
 20 21  2  0
 21 22  1  0
 22 23  2  0
 18 24  1  0
 24 25  2  0
 12 26  2  0
  8  3  1  0
 26  9  1  0
 25 15  1  0
 23 19  1  0
M  END
$$$$
