
     RDKit          3D

 25 27  0  0  0  0  0  0  0  0999 V2000
   14.8936  100.3025   52.7247 C   0  0  0  0  0  0  0  0  0  0  0  0
   14.7399  101.0079   54.0636 C   0  0  0  0  0  0  0  0  0  0  0  0
   16.1607  101.2280   54.6009 C   0  0  0  0  0  0  0  0  0  0  0  0
   14.0403  100.1603   55.0405 C   0  0  0  0  0  0  0  0  0  0  0  0
   13.9457   98.9153   54.8835 O   0  0  0  0  0  0  0  0  0  0  0  0
   13.4594  100.7464   56.1796 N   0  0  0  0  0  0  0  0  0  0  0  0
   12.6702  100.0098   57.1168 C   0  0  0  0  0  0  0  0  0  0  0  0
   12.5161   98.6432   57.0314 C   0  0  0  0  0  0  0  0  0  0  0  0
   11.7445   97.9399   57.9445 C   0  0  0  0  0  0  0  0  0  0  0  0
   11.0967   98.5745   58.9781 C   0  0  0  0  0  0  0  0  0  0  0  0
   10.2652   97.8889   59.9894 C   0  0  0  0  0  0  0  0  0  0  0  0
   11.0798   96.9965   60.8483 C   0  0  0  0  0  0  0  0  0  0  0  0
   12.2224   96.6355   60.4794 O   0  0  0  0  0  0  0  0  0  0  0  0
   10.5090   96.5818   62.0849 N   0  0  0  0  0  0  0  0  0  0  0  0
   11.1890   95.5792   62.8276 C   0  0  0  0  0  0  0  0  0  0  0  0
   10.5520   94.7338   63.6991 C   0  0  0  0  0  0  0  0  0  0  0  0
   11.2698   93.7720   64.3798 C   0  0  0  0  0  0  0  0  0  0  0  0
   12.6298   93.6491   64.1930 C   0  0  0  0  0  0  0  0  0  0  0  0
   13.2415   94.5097   63.3132 C   0  0  0  0  0  0  0  0  0  0  0  0
   12.5566   95.4835   62.6161 C   0  0  0  0  0  0  0  0  0  0  0  0
   14.6966   94.1726   63.2865 C   0  0  0  0  0  0  0  0  0  0  0  0
   14.6417   92.6667   63.5743 C   0  0  0  0  0  0  0  0  0  0  0  0
   13.6697   92.7191   64.7711 C   0  0  0  0  0  0  0  0  0  0  0  0
   11.2569   99.9553   59.0583 C   0  0  0  0  0  0  0  0  0  0  0  0
   12.0214  100.6563   58.1548 C   0  0  0  0  0  0  0  0  0  0  0  0
  1  2  1  0
  2  3  1  0
  2  4  1  0
  4  5  2  0
  4  6  1  0
  6  7  1  0
  7  8  2  0
  8  9  1  0
  9 10  2  0
 10 11  1  0
 11 12  1  0
 12 13  2  0
 12 14  1  0
 14 15  1  0
 15 16  2  0
 16 17  1  0
 17 18  2  0
 18 19  1  0
 19 20  2  0
 19 21  1  0
 21 22  1  0
 22 23  1  0
 10 24  1  0
 24 25  2  0
 25  7  1  0
 20 15  1  0
 23 18  1  0
M  END
$$$$
