
     RDKit          3D

 33 37  0  0  0  0  0  0  0  0999 V2000
   18.3934   99.4385   49.3440 C   0  0  0  0  0  0  0  0  0  0  0  0
   17.1799   99.3964   50.1709 C   0  0  0  0  0  0  0  0  0  0  0  0
   16.4172   98.3931   50.0369 O   0  0  0  0  0  0  0  0  0  0  0  0
   16.8015  100.3925   51.1040 N   0  0  0  0  0  0  0  0  0  0  0  0
   15.6174  100.2167   51.8690 C   0  0  0  0  0  0  0  0  0  0  0  0
   15.2478  101.0203   52.9216 C   0  0  0  0  0  0  0  0  0  0  0  0
   14.0924  100.8260   53.6467 C   0  0  0  0  0  0  0  0  0  0  0  0
   13.2672   99.7691   53.2941 C   0  0  0  0  0  0  0  0  0  0  0  0
   11.7837   99.5415   54.2457 S   0  0  0  0  0  0  0  0  0  0  0  0
   11.8698  100.3733   55.8280 C   0  0  0  0  0  0  0  0  0  0  0  0
   12.4411  101.5623   56.1107 N   0  0  0  0  0  0  0  0  0  0  0  0
   12.2917  101.8277   57.3980 N   0  0  0  0  0  0  0  0  0  0  0  0
   11.6106  100.8040   57.9908 C   0  0  0  0  0  0  0  0  0  0  0  0
   11.2007  100.5857   59.2879 C   0  0  0  0  0  0  0  0  0  0  0  0
   10.5174   99.4205   59.5569 C   0  0  0  0  0  0  0  0  0  0  0  0
   10.2747   98.5315   58.5305 C   0  0  0  0  0  0  0  0  0  0  0  0
    9.3903   96.9940   58.8121 S   0  0  0  0  0  0  0  0  0  0  0  0
    9.8812   96.3371   60.3976 C   0  0  0  0  0  0  0  0  0  0  0  0
    9.1058   96.2927   61.4902 N   0  0  0  0  0  0  0  0  0  0  0  0
    9.8287   95.7321   62.4728 N   0  0  0  0  0  0  0  0  0  0  0  0
   11.0451   95.4359   61.9749 C   0  0  0  0  0  0  0  0  0  0  0  0
   12.1636   94.8095   62.6940 C   0  0  0  0  0  0  0  0  0  0  0  0
   11.9907   94.2403   63.9400 C   0  0  0  0  0  0  0  0  0  0  0  0
   13.0550   93.6612   64.5891 C   0  0  0  0  0  0  0  0  0  0  0  0
   14.3073   93.6327   64.0228 C   0  0  0  0  0  0  0  0  0  0  0  0
   15.6917   92.8942   64.8371 Cl  0  0  0  0  0  0  0  0  0  0  0  0
   14.4661   94.2074   62.7726 C   0  0  0  0  0  0  0  0  0  0  0  0
   13.4090   94.7912   62.1103 C   0  0  0  0  0  0  0  0  0  0  0  0
   11.0478   95.8110   60.7246 O   0  0  0  0  0  0  0  0  0  0  0  0
   10.7095   98.8201   57.2897 N   0  0  0  0  0  0  0  0  0  0  0  0
   11.3710   99.9333   56.9939 N   0  0  0  0  0  0  0  0  0  0  0  0
   13.6025   98.9406   52.2449 C   0  0  0  0  0  0  0  0  0  0  0  0
   14.7833   99.1717   51.5348 C   0  0  0  0  0  0  0  0  0  0  0  0
  1  2  1  0
  2  3  2  0
  2  4  1  0
  4  5  1  0
  5  6  2  0
  6  7  1  0
  7  8  2  0
  8  9  1  0
  9 10  1  0
 10 11  2  0
 11 12  1  0
 12 13  2  0
 13 14  1  0
 14 15  2  0
 15 16  1  0
 16 17  1  0
 17 18  1  0
 18 19  2  0
 19 20  1  0
 20 21  2  0
 21 22  1  0
 22 23  2  0
 23 24  1  0
 24 25  2  0
 25 26  1  0
 25 27  1  0
 27 28  2  0
 21 29  1  0
 16 30  2  0
 30 31  1  0
  8 32  1  0
 32 33  2  0
 33  5  1  0
 31 10  1  0
 31 13  1  0
 29 18  1  0
 28 22  1  0
M  END
$$$$
