
     RDKit          3D

 22 24  0  0  0  0  0  0  0  0999 V2000
   11.0097  102.0661   58.8019 C   0  0  0  0  0  0  0  0  0  0  0  0
   11.9228  101.1856   58.0429 C   0  0  0  0  0  0  0  0  0  0  0  0
   12.8181  101.4853   57.0836 N   0  0  0  0  0  0  0  0  0  0  0  0
   13.4188  100.4001   56.6778 O   0  0  0  0  0  0  0  0  0  0  0  0
   12.9856   99.3551   57.3085 C   0  0  0  0  0  0  0  0  0  0  0  0
   13.2565   98.0195   57.2821 N   0  0  0  0  0  0  0  0  0  0  0  0
   12.5796   97.2028   58.1166 C   0  0  0  0  0  0  0  0  0  0  0  0
   11.6501   97.6237   58.9772 N   0  0  0  0  0  0  0  0  0  0  0  0
   10.9319   96.7354   59.8666 C   0  0  0  0  0  0  0  0  0  0  0  0
   11.8758   96.0716   60.8200 C   0  0  0  0  0  0  0  0  0  0  0  0
   13.1045   96.1664   60.5928 O   0  0  0  0  0  0  0  0  0  0  0  0
   11.4528   95.3542   61.9471 N   0  0  0  0  0  0  0  0  0  0  0  0
   12.3924   94.4965   62.6218 C   0  0  0  0  0  0  0  0  0  0  0  0
   11.9501   93.6261   63.5933 C   0  0  0  0  0  0  0  0  0  0  0  0
   12.7796   92.7796   64.2792 C   0  0  0  0  0  0  0  0  0  0  0  0
   14.1248   92.8027   63.9794 C   0  0  0  0  0  0  0  0  0  0  0  0
   14.5818   93.6675   63.0107 C   0  0  0  0  0  0  0  0  0  0  0  0
   15.9034   93.6752   62.7313 F   0  0  0  0  0  0  0  0  0  0  0  0
   13.7370   94.5157   62.3261 C   0  0  0  0  0  0  0  0  0  0  0  0
   11.3632   98.9519   59.0211 C   0  0  0  0  0  0  0  0  0  0  0  0
   10.4840   99.3437   59.8363 O   0  0  0  0  0  0  0  0  0  0  0  0
   12.0273   99.8028   58.1933 C   0  0  0  0  0  0  0  0  0  0  0  0
  1  2  1  0
  2  3  2  0
  3  4  1  0
  4  5  1  0
  5  6  1  0
  6  7  2  0
  7  8  1  0
  8  9  1  0
  9 10  1  0
 10 11  2  0
 10 12  1  0
 12 13  1  0
 13 14  2  0
 14 15  1  0
 15 16  2  0
 16 17  1  0
 17 18  1  0
 17 19  2  0
  8 20  1  0
 20 21  2  0
 20 22  1  0
 22  2  1  0
 22  5  2  0
 19 13  1  0
M  END
$$$$
