
     RDKit          3D

 19 21  0  0  0  0  0  0  0  0999 V2000
   10.1852   96.8906   61.3728 O   0  0  0  0  0  0  0  0  0  0  0  0
   11.2358   96.3750   60.9123 C   0  0  0  0  0  0  0  0  0  0  0  0
   11.6428   96.5726   59.5657 N   0  0  0  0  0  0  0  0  0  0  0  0
   10.8042   97.2933   58.6626 C   0  0  0  0  0  0  0  0  0  0  0  0
   10.8845   98.7927   58.8568 C   0  0  0  0  0  0  0  0  0  0  0  0
   11.7956   99.3486   57.8044 C   0  0  0  0  0  0  0  0  0  0  0  0
   11.4449   99.6704   56.5511 N   0  0  0  0  0  0  0  0  0  0  0  0
   12.5077  100.1419   55.8715 C   0  0  0  0  0  0  0  0  0  0  0  0
   13.5461  100.1115   56.7274 N   0  0  0  0  0  0  0  0  0  0  0  0
   13.1082   99.6287   57.9003 N   0  0  0  0  0  0  0  0  0  0  0  0
   12.0760   95.5476   61.7645 C   0  0  0  0  0  0  0  0  0  0  0  0
   11.6989   94.8971   62.9199 C   0  0  0  0  0  0  0  0  0  0  0  0
   12.7863   94.2192   63.4318 C   0  0  0  0  0  0  0  0  0  0  0  0
   12.9230   93.4304   64.5551 C   0  0  0  0  0  0  0  0  0  0  0  0
   14.1629   92.8717   64.8162 C   0  0  0  0  0  0  0  0  0  0  0  0
   15.1991   93.1325   63.9393 C   0  0  0  0  0  0  0  0  0  0  0  0
   15.0431   93.9235   62.8216 C   0  0  0  0  0  0  0  0  0  0  0  0
   13.8118   94.4863   62.5503 C   0  0  0  0  0  0  0  0  0  0  0  0
   13.3805   95.2814   61.5552 N   0  0  0  0  0  0  0  0  0  0  0  0
  1  2  2  0
  2  3  1  0
  3  4  1  0
  4  5  1  0
  5  6  1  0
  6  7  1  0
  7  8  2  0
  8  9  1  0
  9 10  1  0
  2 11  1  0
 11 12  2  0
 12 13  1  0
 13 14  2  0
 14 15  1  0
 15 16  2  0
 16 17  1  0
 17 18  2  0
 18 19  1  0
 10  6  2  0
 19 11  1  0
 18 13  1  0
M  END
$$$$
