
     RDKit          3D

 35 39  0  0  0  0  0  0  0  0999 V2000
   15.6504  103.7775   47.8309 C   0  0  0  0  0  0  0  0  0  0  0  0
   16.2044  102.5708   48.3036 O   0  0  0  0  0  0  0  0  0  0  0  0
   15.7191  101.9226   49.4311 C   0  0  0  0  0  0  0  0  0  0  0  0
   16.5473  101.7780   50.5230 C   0  0  0  0  0  0  0  0  0  0  0  0
   16.0967  101.1342   51.6707 C   0  0  0  0  0  0  0  0  0  0  0  0
   14.8259  100.6138   51.7843 C   0  0  0  0  0  0  0  0  0  0  0  0
   14.3488   99.9473   52.9446 N   0  0  0  0  0  0  0  0  0  0  0  0
   14.0103  100.7138   54.1172 C   0  0  0  0  0  0  0  0  0  0  0  0
   14.0729   99.7846   55.3103 C   0  0  0  0  0  0  0  0  0  0  0  0
   13.1005   98.7599   55.1268 N   0  0  0  0  0  0  0  0  0  0  0  0
   11.7933   99.2236   55.4432 C   0  0  0  0  0  0  0  0  0  0  0  0
   11.6280   99.7863   56.7773 C   0  0  0  0  0  0  0  0  0  0  0  0
   11.2065  101.0832   56.9689 C   0  0  0  0  0  0  0  0  0  0  0  0
   11.0656  101.5678   58.2468 C   0  0  0  0  0  0  0  0  0  0  0  0
   10.6738  102.7705   58.3622 O   0  0  0  0  0  0  0  0  0  0  0  0
   11.3120  100.8593   59.3104 O   0  0  0  0  0  0  0  0  0  0  0  0
   11.7203   99.6056   59.1831 C   0  0  0  0  0  0  0  0  0  0  0  0
   11.9596   98.9235   60.3396 C   0  0  0  0  0  0  0  0  0  0  0  0
   11.7893   99.5009   61.6912 C   0  0  0  0  0  0  0  0  0  0  0  0
   12.3985   97.5781   60.2306 C   0  0  0  0  0  0  0  0  0  0  0  0
   12.6283   96.9300   61.3791 O   0  0  0  0  0  0  0  0  0  0  0  0
   12.2051   95.7833   61.9648 C   0  0  0  0  0  0  0  0  0  0  0  0
   13.1501   95.0973   62.8675 C   0  0  0  0  0  0  0  0  0  0  0  0
   14.5200   95.2625   62.6795 C   0  0  0  0  0  0  0  0  0  0  0  0
   15.4506   94.6106   63.4713 C   0  0  0  0  0  0  0  0  0  0  0  0
   15.0241   93.7677   64.4820 C   0  0  0  0  0  0  0  0  0  0  0  0
   13.6736   93.6073   64.6639 C   0  0  0  0  0  0  0  0  0  0  0  0
   12.7361   94.2668   63.8626 C   0  0  0  0  0  0  0  0  0  0  0  0
   12.5544   97.0493   58.9545 C   0  0  0  0  0  0  0  0  0  0  0  0
   12.3057   97.7601   57.8166 C   0  0  0  0  0  0  0  0  0  0  0  0
   11.8835   99.0533   57.9157 C   0  0  0  0  0  0  0  0  0  0  0  0
   13.2218   97.9972   53.9353 C   0  0  0  0  0  0  0  0  0  0  0  0
   14.2064   98.5295   52.9339 C   0  0  0  0  0  0  0  0  0  0  0  0
   14.0013  100.7729   50.6609 C   0  0  0  0  0  0  0  0  0  0  0  0
   14.4474  101.4097   49.5264 C   0  0  0  0  0  0  0  0  0  0  0  0
  1  2  1  0
  2  3  1  0
  3  4  2  0
  4  5  1  0
  5  6  2  0
  6  7  1  0
  7  8  1  0
  8  9  1  0
  9 10  1  0
 10 11  1  0
 11 12  1  0
 12 13  2  0
 13 14  1  0
 14 15  2  0
 14 16  1  0
 16 17  1  0
 17 18  2  0
 18 19  1  0
 18 20  1  0
 20 21  1  0
 21 22  1  0
 22 23  1  0
 23 24  2  0
 24 25  1  0
 25 26  2  0
 26 27  1  0
 27 28  2  0
 20 29  2  0
 29 30  1  0
 30 31  2  0
 10 32  1  0
 32 33  1  0
  6 34  1  0
 34 35  2  0
 35  3  1  0
 33  7  1  0
 31 12  1  0
 31 17  1  0
 28 23  1  0
M  END
$$$$
