
     RDKit          3D

 22 24  0  0  0  0  0  0  0  0999 V2000
   -3.1444   62.8979   30.8225 C   0  0  0  0  0  0  0  0  0  0  0  0
   -3.3857   61.4367   31.1169 C   0  0  0  0  0  0  0  0  0  0  0  0
   -3.0877   60.6804   29.8492 C   0  0  0  0  0  0  0  0  0  0  0  0
   -2.4633   60.9304   32.1894 C   0  0  0  0  0  0  0  0  0  0  0  0
   -4.7458   61.2767   31.5538 N   0  0  0  0  0  0  0  0  0  0  0  0
   -5.5269   60.1337   31.3361 C   0  0  0  0  0  0  0  0  0  0  0  0
   -5.0176   59.0117   31.5190 O   0  0  0  0  0  0  0  0  0  0  0  0
   -6.8635   60.2624   30.9178 N   0  0  0  0  0  0  0  0  0  0  0  0
   -7.3305   61.5942   30.5778 C   0  0  0  0  0  0  0  0  0  0  0  0
   -8.7904   61.7275   30.7328 C   0  0  0  0  0  0  0  0  0  0  0  0
   -9.2761   62.8095   31.1406 O   0  0  0  0  0  0  0  0  0  0  0  0
   -9.6037   60.6154   30.4118 N   0  0  0  0  0  0  0  0  0  0  0  0
  -11.0252   60.8026   30.3044 C   0  0  0  0  0  0  0  0  0  0  0  0
  -11.7284   59.9466   31.3567 C   0  0  0  0  0  0  0  0  0  0  0  0
  -11.2490   58.5420   31.0992 C   0  0  0  0  0  0  0  0  0  0  0  0
  -12.1159   57.5163   31.4218 C   0  0  0  0  0  0  0  0  0  0  0  0
  -11.7744   56.1865   31.2249 C   0  0  0  0  0  0  0  0  0  0  0  0
  -10.5285   55.9223   30.6914 C   0  0  0  0  0  0  0  0  0  0  0  0
   -9.6680   56.9585   30.3719 C   0  0  0  0  0  0  0  0  0  0  0  0
  -10.0192   58.2913   30.5730 C   0  0  0  0  0  0  0  0  0  0  0  0
   -9.0274   59.3369   30.1990 C   0  0  0  0  0  0  0  0  0  0  0  0
   -7.6962   59.0926   30.8447 C   0  0  0  0  0  0  0  0  0  0  0  0
  1  2  1  0
  2  3  1  0
  2  4  1  0
  2  5  1  0
  5  6  1  0
  6  7  2  0
  6  8  1  0
  8  9  1  0
  9 10  1  0
 10 11  2  0
 10 12  1  0
 12 13  1  0
 13 14  1  0
 14 15  1  0
 15 16  2  0
 16 17  1  0
 17 18  2  0
 18 19  1  0
 19 20  2  0
 20 21  1  0
 21 22  1  0
 22  8  1  0
 21 12  1  0
 20 15  1  0
M  END
$$$$
