
     RDKit          3D

 31 34  0  0  0  0  0  0  0  0999 V2000
    8.6656   95.4460   64.2618 C   0  0  0  0  0  0  0  0  0  0  0  0
    9.9616   95.0724   64.6371 O   0  0  0  0  0  0  0  0  0  0  0  0
   11.0169   95.3490   63.7640 C   0  0  0  0  0  0  0  0  0  0  0  0
   10.7931   95.8920   62.5225 C   0  0  0  0  0  0  0  0  0  0  0  0
   11.8555   96.1490   61.6949 C   0  0  0  0  0  0  0  0  0  0  0  0
   11.7152   96.7249   60.4002 N   0  0  0  0  0  0  0  0  0  0  0  0
   12.5992   96.3605   59.3322 C   0  0  0  0  0  0  0  0  0  0  0  0
   13.2671   97.6627   58.8648 C   0  0  0  0  0  0  0  0  0  0  0  0
   12.1655   98.4613   58.3370 N   0  0  0  0  0  0  0  0  0  0  0  0
   12.2069   98.8651   56.9785 C   0  0  0  0  0  0  0  0  0  0  0  0
   11.5070   99.8077   56.5645 O   0  0  0  0  0  0  0  0  0  0  0  0
   13.1053   98.1468   56.0301 C   0  0  0  0  0  0  0  0  0  0  0  0
   13.0845   98.7845   54.7490 N   0  0  0  0  0  0  0  0  0  0  0  0
   12.1116   98.7794   53.8526 N   0  0  0  0  0  0  0  0  0  0  0  0
   12.4491   99.4889   52.7620 C   0  0  0  0  0  0  0  0  0  0  0  0
   13.7196   99.9697   52.9940 C   0  0  0  0  0  0  0  0  0  0  0  0
   14.0948   99.5164   54.2413 C   0  0  0  0  0  0  0  0  0  0  0  0
   15.3575   99.8710   54.7160 C   0  0  0  0  0  0  0  0  0  0  0  0
   15.7079   99.4607   55.8554 O   0  0  0  0  0  0  0  0  0  0  0  0
   16.1719  100.6267   53.9787 N   0  0  0  0  0  0  0  0  0  0  0  0
   17.4825  100.9590   54.5421 C   0  0  0  0  0  0  0  0  0  0  0  0
   15.7741  101.0423   52.7848 C   0  0  0  0  0  0  0  0  0  0  0  0
   16.5328  101.7560   52.0786 O   0  0  0  0  0  0  0  0  0  0  0  0
   14.5771  100.7291   52.2892 N   0  0  0  0  0  0  0  0  0  0  0  0
   14.1206  101.1788   50.9725 C   0  0  0  0  0  0  0  0  0  0  0  0
   11.0915   98.8033   59.2105 C   0  0  0  0  0  0  0  0  0  0  0  0
   10.6676   97.7065   60.1566 C   0  0  0  0  0  0  0  0  0  0  0  0
   13.1364   95.8583   62.1208 C   0  0  0  0  0  0  0  0  0  0  0  0
   13.3269   95.3169   63.3648 C   0  0  0  0  0  0  0  0  0  0  0  0
   12.2768   95.0490   64.2161 C   0  0  0  0  0  0  0  0  0  0  0  0
   12.5426   94.4605   65.5570 C   0  0  0  0  0  0  0  0  0  0  0  0
  1  2  1  0
  2  3  1  0
  3  4  2  0
  4  5  1  0
  5  6  1  0
  6  7  1  0
  7  8  1  0
  8  9  1  0
  9 10  1  0
 10 11  2  0
 10 12  1  0
 12 13  1  0
 13 14  1  0
 14 15  2  0
 15 16  1  0
 16 17  2  0
 17 18  1  0
 18 19  2  0
 18 20  1  0
 20 21  1  0
 20 22  1  0
 22 23  2  0
 22 24  1  0
 24 25  1  0
  9 26  1  0
 26 27  1  0
  5 28  2  0
 28 29  1  0
 29 30  2  0
 30 31  1  0
 30  3  1  0
 27  6  1  0
 17 13  1  0
 24 16  1  0
M  END
$$$$
