
     RDKit          3D

 26 28  0  0  0  0  0  0  0  0999 V2000
   39.0773   77.9712   58.6053 C   0  0  0  0  0  0  0  0  0  0  0  0
   39.6869   77.4512   57.4640 O   0  0  0  0  0  0  0  0  0  0  0  0
   39.6546   78.0789   56.2298 C   0  0  0  0  0  0  0  0  0  0  0  0
   38.6779   77.7926   55.3085 C   0  0  0  0  0  0  0  0  0  0  0  0
   38.6992   78.4455   54.1069 C   0  0  0  0  0  0  0  0  0  0  0  0
   39.6711   79.3840   53.7890 C   0  0  0  0  0  0  0  0  0  0  0  0
   39.6554   80.0682   52.4728 C   0  0  0  0  0  0  0  0  0  0  0  0
   38.4414   81.0028   52.4944 C   0  0  0  0  0  0  0  0  0  0  0  0
   38.4569   81.7297   51.2486 N   0  0  0  0  0  0  0  0  0  0  0  0
   37.6752   82.9416   51.3085 C   0  0  0  0  0  0  0  0  0  0  0  0
   36.3533   82.6672   50.7032 C   0  0  0  0  0  0  0  0  0  0  0  0
   36.0103   82.4491   49.3882 C   0  0  0  0  0  0  0  0  0  0  0  0
   34.6940   82.2483   49.3569 O   0  0  0  0  0  0  0  0  0  0  0  0
   34.1960   82.3265   50.5608 C   0  0  0  0  0  0  0  0  0  0  0  0
   32.8111   82.1716   50.9721 C   0  0  0  0  0  0  0  0  0  0  0  0
   31.8841   81.7755   50.0401 C   0  0  0  0  0  0  0  0  0  0  0  0
   30.5778   81.6246   50.4087 C   0  0  0  0  0  0  0  0  0  0  0  0
   30.1987   81.8731   51.7221 C   0  0  0  0  0  0  0  0  0  0  0  0
   28.7661   81.6926   52.0638 C   0  0  0  0  0  0  0  0  0  0  0  0
   31.1397   82.2693   52.6434 C   0  0  0  0  0  0  0  0  0  0  0  0
   32.4476   82.4223   52.2829 C   0  0  0  0  0  0  0  0  0  0  0  0
   35.2107   82.5848   51.4007 N   0  0  0  0  0  0  0  0  0  0  0  0
   40.6525   79.6725   54.7130 C   0  0  0  0  0  0  0  0  0  0  0  0
   40.6493   79.0206   55.9398 C   0  0  0  0  0  0  0  0  0  0  0  0
   41.6075   79.2787   56.8867 O   0  0  0  0  0  0  0  0  0  0  0  0
   42.0801   80.5795   57.0765 C   0  0  0  0  0  0  0  0  0  0  0  0
  1  2  1  0
  2  3  1  0
  3  4  2  0
  4  5  1  0
  5  6  2  0
  6  7  1  0
  7  8  1  0
  8  9  1  0
  9 10  1  0
 10 11  1  0
 11 12  2  0
 12 13  1  0
 13 14  1  0
 14 15  1  0
 15 16  2  0
 16 17  1  0
 17 18  2  0
 18 19  1  0
 18 20  1  0
 20 21  2  0
 14 22  2  0
  6 23  1  0
 23 24  2  0
 24 25  1  0
 25 26  1  0
 24  3  1  0
 22 11  1  0
 21 15  1  0
M  END
$$$$
