
     RDKit          3D

 27 30  0  0  0  0  0  0  0  0999 V2000
    4.0815   94.8521   64.2744 C   0  0  0  0  0  0  0  0  0  0  0  0
    4.5926   93.6801   62.9864 S   0  0  0  0  0  0  0  0  0  0  0  0
    4.9271   94.6613   61.4823 C   0  0  1  0  0  0  0  0  0  0  0  0
    6.0233   95.4503   61.6910 O   0  0  0  0  0  0  0  0  0  0  0  0
    7.0681   95.0125   60.8923 C   0  0  1  0  0  0  0  0  0  0  0  0
    8.3539   95.2074   61.4789 N   0  0  0  0  0  0  0  0  0  0  0  0
    8.7605   94.9852   62.7377 C   0  0  0  0  0  0  0  0  0  0  0  0
   10.0623   95.3064   62.8676 N   0  0  0  0  0  0  0  0  0  0  0  0
   10.4922   95.7437   61.6594 C   0  0  0  0  0  0  0  0  0  0  0  0
   11.7080   96.2031   61.1793 C   0  0  0  0  0  0  0  0  0  0  0  0
   12.8167   96.2771   62.0491 N   0  0  0  0  0  0  0  0  0  0  0  0
   13.4270   95.1064   62.5578 C   0  0  0  0  0  0  0  0  0  0  0  0
   14.6229   95.1573   63.2655 C   0  0  0  0  0  0  0  0  0  0  0  0
   15.2098   94.0132   63.7577 C   0  0  0  0  0  0  0  0  0  0  0  0
   14.6201   92.7967   63.5567 C   0  0  0  0  0  0  0  0  0  0  0  0
   15.3996   91.3766   64.1993 Cl  0  0  0  0  0  0  0  0  0  0  0  0
   13.4284   92.7072   62.8561 C   0  0  0  0  0  0  0  0  0  0  0  0
   12.8486   93.8693   62.3659 C   0  0  0  0  0  0  0  0  0  0  0  0
   11.8253   96.5867   59.8511 C   0  0  0  0  0  0  0  0  0  0  0  0
   13.3935   97.1553   59.3246 Cl  0  0  0  0  0  0  0  0  0  0  0  0
   10.7306   96.5102   59.0105 C   0  0  0  0  0  0  0  0  0  0  0  0
    9.5618   96.0609   59.5008 N   0  0  0  0  0  0  0  0  0  0  0  0
    9.4332   95.6837   60.7932 C   0  0  0  0  0  0  0  0  0  0  0  0
    6.7636   93.5369   60.6040 C   0  0  2  0  0  0  0  0  0  0  0  0
    7.4118   93.0965   59.4721 O   0  0  0  0  0  0  0  0  0  0  0  0
    5.2500   93.6725   60.3764 C   0  0  2  0  0  0  0  0  0  0  0  0
    5.0109   94.3306   59.1709 O   0  0  0  0  0  0  0  0  0  0  0  0
  1  2  1  0
  3  2  1  1
  3  4  1  0
  4  5  1  0
  5  6  1  1
  6  7  1  0
  7  8  2  0
  8  9  1  0
  9 10  2  0
 10 11  1  0
 11 12  1  0
 12 13  2  0
 13 14  1  0
 14 15  2  0
 15 16  1  0
 15 17  1  0
 17 18  2  0
 10 19  1  0
 19 20  1  0
 19 21  2  0
 21 22  1  0
 22 23  2  0
  5 24  1  0
 24 25  1  6
 24 26  1  0
 26 27  1  6
 26  3  1  0
 23  6  1  0
 23  9  1  0
 18 12  1  0
M  END
$$$$
