
     RDKit          3D

 23 25  0  0  0  0  0  0  0  0999 V2000
   -9.1759   61.0086   29.6280 C   0  0  0  0  0  0  0  0  0  0  0  0
   -9.3360   60.2038   30.9000 C   0  0  0  0  0  0  0  0  0  0  0  0
  -10.6102   59.3681   30.7345 C   0  0  0  0  0  0  0  0  0  0  0  0
   -9.5706   61.1777   32.0285 C   0  0  0  0  0  0  0  0  0  0  0  0
   -8.1647   59.3098   31.1292 C   0  0  0  0  0  0  0  0  0  0  0  0
   -7.0278   60.1208   31.5096 N   0  0  0  0  0  0  0  0  0  0  0  0
   -5.9939   60.4868   30.6348 C   0  0  0  0  0  0  0  0  0  0  0  0
   -5.9620   60.0198   29.4724 O   0  0  0  0  0  0  0  0  0  0  0  0
   -4.9220   61.3986   30.9919 C   0  0  0  0  0  0  0  0  0  0  0  0
   -5.1354   63.1310   31.5118 S   0  0  0  0  0  0  0  0  0  0  0  0
   -3.2637   63.3508   31.7116 C   0  0  0  0  0  0  0  0  0  0  0  0
   -2.9155   62.2761   31.4042 N   0  0  0  0  0  0  0  0  0  0  0  0
   -3.5375   61.2127   31.0321 C   0  0  0  0  0  0  0  0  0  0  0  0
   -2.9211   59.8765   30.6627 C   0  0  0  0  0  0  0  0  0  0  0  0
   -1.7248   59.8738   29.7804 C   0  0  0  0  0  0  0  0  0  0  0  0
   -1.5858   59.5369   31.2033 C   0  0  0  0  0  0  0  0  0  0  0  0
   -8.4215   58.2135   32.0673 C   0  0  0  0  0  0  0  0  0  0  0  0
   -9.6306   58.1617   32.6968 C   0  0  0  0  0  0  0  0  0  0  0  0
   -9.8706   57.1291   33.5789 C   0  0  0  0  0  0  0  0  0  0  0  0
   -8.9301   56.1572   33.8390 C   0  0  0  0  0  0  0  0  0  0  0  0
   -9.1537   55.1367   34.7041 F   0  0  0  0  0  0  0  0  0  0  0  0
   -7.7141   56.2352   33.1866 C   0  0  0  0  0  0  0  0  0  0  0  0
   -7.4685   57.2571   32.3097 C   0  0  0  0  0  0  0  0  0  0  0  0
  1  2  1  0
  2  3  1  0
  2  4  1  0
  2  5  1  0
  5  6  1  0
  6  7  1  0
  7  8  2  0
  7  9  1  0
  9 10  1  0
 10 11  1  0
 11 12  2  0
 12 13  1  0
 13 14  1  0
 14 15  1  0
 15 16  1  0
  5 17  1  0
 17 18  2  0
 18 19  1  0
 19 20  2  0
 20 21  1  0
 20 22  1  0
 22 23  2  0
 13  9  2  0
 16 14  1  0
 23 17  1  0
M  END
$$$$
