
     RDKit          3D

 28 31  0  0  0  0  0  0  0  0999 V2000
   11.6397   99.8467   59.8345 O   0  0  0  0  0  0  0  0  0  0  0  0
   11.6005   99.4830   58.6314 C   0  0  0  0  0  0  0  0  0  0  0  0
   11.4845   98.0552   58.3290 C   0  0  0  0  0  0  0  0  0  0  0  0
   11.6889   97.2429   59.5275 N   0  0  0  0  0  0  0  0  0  0  0  0
   10.7224   97.0908   60.4497 C   0  0  0  0  0  0  0  0  0  0  0  0
   10.8774   96.3488   61.5666 N   0  0  0  0  0  0  0  0  0  0  0  0
   12.0277   95.7020   61.8349 C   0  0  0  0  0  0  0  0  0  0  0  0
   12.1650   94.8983   63.0659 C   0  0  0  0  0  0  0  0  0  0  0  0
   11.5446   95.1981   64.2322 C   0  0  0  0  0  0  0  0  0  0  0  0
   11.7309   94.3854   65.3412 C   0  0  0  0  0  0  0  0  0  0  0  0
   12.5302   93.2627   65.3261 C   0  0  0  0  0  0  0  0  0  0  0  0
   13.1483   92.9883   64.1151 C   0  0  0  0  0  0  0  0  0  0  0  0
   12.9820   93.7703   63.0110 C   0  0  0  0  0  0  0  0  0  0  0  0
   13.6022   93.4713   61.8439 F   0  0  0  0  0  0  0  0  0  0  0  0
   13.0335   95.8381   60.9118 C   0  0  0  0  0  0  0  0  0  0  0  0
   12.8527   96.6146   59.7559 C   0  0  0  0  0  0  0  0  0  0  0  0
   13.7993   96.7193   58.9257 O   0  0  0  0  0  0  0  0  0  0  0  0
   11.6645  100.4065   57.5527 N   0  0  0  0  0  0  0  0  0  0  0  0
   12.4629  100.1312   56.4072 C   0  0  0  0  0  0  0  0  0  0  0  0
   12.0237   99.1904   55.4990 C   0  0  0  0  0  0  0  0  0  0  0  0
   12.7735   98.8867   54.3597 C   0  0  0  0  0  0  0  0  0  0  0  0
   13.9799   99.5430   54.1393 C   0  0  0  0  0  0  0  0  0  0  0  0
   14.4276  100.4786   55.0320 C   0  0  0  0  0  0  0  0  0  0  0  0
   13.6635  100.7579   56.1506 C   0  0  0  0  0  0  0  0  0  0  0  0
   15.6375  101.1050   54.7661 O   0  0  0  0  0  0  0  0  0  0  0  0
   16.2144  101.1347   53.4731 C   0  0  0  0  0  0  0  0  0  0  0  0
   16.0976   99.7288   52.9025 C   0  0  0  0  0  0  0  0  0  0  0  0
   14.7633   99.2828   53.0294 O   0  0  0  0  0  0  0  0  0  0  0  0
  1  2  2  0
  2  3  1  0
  3  4  1  0
  4  5  1  0
  5  6  2  0
  6  7  1  0
  7  8  1  0
  8  9  2  0
  9 10  1  0
 10 11  2  0
 11 12  1  0
 12 13  2  0
 13 14  1  0
  7 15  2  0
 15 16  1  0
 16 17  2  0
  2 18  1  0
 18 19  1  0
 19 20  2  0
 20 21  1  0
 21 22  2  0
 22 23  1  0
 23 24  2  0
 23 25  1  0
 25 26  1  0
 26 27  1  0
 27 28  1  0
 16  4  1  0
 24 19  1  0
 13  8  1  0
 28 22  1  0
M  END
$$$$
