
     RDKit          3D

 25 27  0  0  0  0  0  0  0  0999 V2000
   15.7492   58.4458   14.5199 C   0  0  0  0  0  0  0  0  0  0  0  0
   16.0363   57.1942   13.7834 C   0  0  0  0  0  0  0  0  0  0  0  0
   16.0782   55.9671   14.4325 C   0  0  0  0  0  0  0  0  0  0  0  0
   16.3490   54.8122   13.7015 C   0  0  0  0  0  0  0  0  0  0  0  0
   16.4173   53.5666   14.4140 C   0  0  0  0  0  0  0  0  0  0  0  0
   17.2081   53.4843   15.4225 O   0  0  0  0  0  0  0  0  0  0  0  0
   15.6793   52.4042   14.0857 N   0  0  0  0  0  0  0  0  0  0  0  0
   15.0502   51.6871   15.1583 C   0  0  0  0  0  0  0  0  0  0  0  0
   15.6192   50.2972   15.3836 C   0  0  0  0  0  0  0  0  0  0  0  0
   14.5836   49.5670   16.1266 N   0  0  0  0  0  0  0  0  0  0  0  0
   13.3077   49.4691   15.3912 C   0  0  0  0  0  0  0  0  0  0  0  0
   14.7420   49.0117   17.3986 C   0  0  0  0  0  0  0  0  0  0  0  0
   15.8625   49.1358   18.1919 C   0  0  0  0  0  0  0  0  0  0  0  0
   15.9711   48.5759   19.4607 C   0  0  0  0  0  0  0  0  0  0  0  0
   14.9069   47.8525   19.9667 C   0  0  0  0  0  0  0  0  0  0  0  0
   13.7804   47.7039   19.2175 C   0  0  0  0  0  0  0  0  0  0  0  0
   13.6930   48.2736   17.9488 C   0  0  0  0  0  0  0  0  0  0  0  0
   12.5436   48.0632   17.3019 F   0  0  0  0  0  0  0  0  0  0  0  0
   16.5634   54.9343   12.3652 C   0  0  0  0  0  0  0  0  0  0  0  0
   16.8486   54.0293   11.3562 C   0  0  0  0  0  0  0  0  0  0  0  0
   16.9865   52.5738   11.5805 C   0  0  0  0  0  0  0  0  0  0  0  0
   16.9516   54.7380   10.2216 N   0  0  0  0  0  0  0  0  0  0  0  0
   16.7586   55.9954   10.4298 O   0  0  0  0  0  0  0  0  0  0  0  0
   16.5217   56.1639   11.7065 C   0  0  0  0  0  0  0  0  0  0  0  0
   16.2562   57.2499   12.4630 N   0  0  0  0  0  0  0  0  0  0  0  0
  1  2  1  0
  2  3  2  0
  3  4  1  0
  4  5  1  0
  5  6  2  0
  5  7  1  0
  7  8  1  0
  8  9  1  0
  9 10  1  0
 10 11  1  0
 10 12  1  0
 12 13  2  0
 13 14  1  0
 14 15  2  0
 15 16  1  0
 16 17  2  0
 17 18  1  0
  4 19  2  0
 19 20  1  0
 20 21  1  0
 20 22  2  0
 22 23  1  0
 23 24  1  0
 24 25  2  0
 25  2  1  0
 17 12  1  0
 24 19  1  0
M  END
$$$$
