
     RDKit          3D

 41 44  0  0  0  0  0  0  0  0999 V2000
   16.9026   49.0750   17.8839 O   0  0  0  0  0  0  0  0  0  0  0  0
   17.7204   49.4832   17.0528 C   0  0  0  0  0  0  0  0  0  0  0  0
   19.1511   49.3816   17.2146 N   0  0  0  0  0  0  0  0  0  0  0  0
   19.6770   48.2638   17.9532 C   0  0  0  0  0  0  0  0  0  0  0  0
   19.5877   48.2729   19.4180 C   0  0  0  0  0  0  0  0  0  0  0  0
   18.5492   48.7972   20.1530 C   0  0  0  0  0  0  0  0  0  0  0  0
   18.4928   48.8137   21.5357 C   0  0  0  0  0  0  0  0  0  0  0  0
   19.5218   48.2820   22.2732 C   0  0  0  0  0  0  0  0  0  0  0  0
   19.4827   48.2889   23.7783 C   0  0  0  0  0  0  0  0  0  0  0  0
   20.1000   49.4531   24.2009 O   0  0  0  0  0  0  0  0  0  0  0  0
   20.5849   47.7459   21.5884 C   0  0  0  0  0  0  0  0  0  0  0  0
   20.6231   47.7393   20.1964 C   0  0  0  0  0  0  0  0  0  0  0  0
   19.9321   50.3952   16.5308 C   0  0  2  0  0  0  0  0  0  0  0  0
   21.1386   50.8705   17.2421 C   0  0  2  0  0  0  0  0  0  0  0  0
   20.8379   51.4370   18.4628 O   0  0  0  0  0  0  0  0  0  0  0  0
   22.0459   51.7110   16.3931 C   0  0  0  0  0  0  0  0  0  0  0  0
   23.3106   51.2069   16.1886 O   0  0  0  0  0  0  0  0  0  0  0  0
   19.0447   51.5692   16.1954 C   0  0  2  0  0  0  0  0  0  0  0  0
   18.4036   52.0880   17.3105 O   0  0  0  0  0  0  0  0  0  0  0  0
   17.9770   51.0887   15.2081 C   0  0  2  0  0  0  0  0  0  0  0  0
   17.2865   52.2596   14.6220 C   0  0  0  0  0  0  0  0  0  0  0  0
   18.2216   53.2984   14.4141 O   0  0  0  0  0  0  0  0  0  0  0  0
   18.2184   53.6709   13.0693 C   0  0  0  0  0  0  0  0  0  0  0  0
   17.4809   54.9404   12.9410 C   0  0  0  0  0  0  0  0  0  0  0  0
   17.2391   55.4911   11.6914 C   0  0  0  0  0  0  0  0  0  0  0  0
   16.5546   56.6711   11.5136 C   0  0  0  0  0  0  0  0  0  0  0  0
   16.0739   57.3602   12.6288 C   0  0  0  0  0  0  0  0  0  0  0  0
   16.3207   56.8031   13.8557 C   0  0  0  0  0  0  0  0  0  0  0  0
   17.0044   55.6218   14.0580 C   0  0  0  0  0  0  0  0  0  0  0  0
   17.1526   50.0960   15.8538 N   0  0  0  0  0  0  0  0  0  0  0  0
   15.8938   49.7116   15.2872 C   0  0  0  0  0  0  0  0  0  0  0  0
   14.7553   49.5264   16.1615 C   0  0  0  0  0  0  0  0  0  0  0  0
   14.5505   48.2816   16.7655 C   0  0  0  0  0  0  0  0  0  0  0  0
   13.4553   48.1104   17.5973 C   0  0  0  0  0  0  0  0  0  0  0  0
   12.5406   49.0965   17.8734 C   0  0  0  0  0  0  0  0  0  0  0  0
   11.3715   48.8569   18.7818 C   0  0  0  0  0  0  0  0  0  0  0  0
   11.8140   49.0410   20.0918 F   0  0  0  0  0  0  0  0  0  0  0  0
   10.8576   47.6005   18.6246 F   0  0  0  0  0  0  0  0  0  0  0  0
   10.3714   49.7893   18.5879 F   0  0  0  0  0  0  0  0  0  0  0  0
   12.7471   50.3155   17.2757 C   0  0  0  0  0  0  0  0  0  0  0  0
   13.8534   50.5175   16.4249 C   0  0  0  0  0  0  0  0  0  0  0  0
  1  2  2  0
  2  3  1  0
  3  4  1  0
  4  5  1  0
  5  6  2  0
  6  7  1  0
  7  8  2  0
  8  9  1  0
  9 10  1  0
  8 11  1  0
 11 12  2  0
 13  3  1  1
 13 14  1  0
 14 15  1  1
 14 16  1  0
 16 17  1  0
 13 18  1  0
 18 19  1  1
 18 20  1  0
 20 21  1  1
 21 22  1  0
 22 23  1  0
 23 24  1  0
 24 25  2  0
 25 26  1  0
 26 27  2  0
 27 28  1  0
 28 29  2  0
 20 30  1  0
 30 31  1  0
 31 32  1  0
 32 33  2  0
 33 34  1  0
 34 35  2  0
 35 36  1  0
 36 37  1  0
 36 38  1  0
 36 39  1  0
 35 40  1  0
 40 41  2  0
 30  2  1  0
 41 32  1  0
 12  5  1  0
 29 24  1  0
M  END
$$$$
