
     RDKit          3D

 16 17  0  0  0  0  0  0  0  0999 V2000
   13.2716   49.5103   16.9814 C   0  0  0  0  0  0  0  0  0  0  0  0
   14.7564   49.5240   17.0853 C   0  0  0  0  0  0  0  0  0  0  0  0
   15.5041   48.7089   17.8662 N   0  0  0  0  0  0  0  0  0  0  0  0
   16.7855   49.0108   17.6986 N   0  0  0  0  0  0  0  0  0  0  0  0
   16.8971   50.0337   16.8007 C   0  0  0  0  0  0  0  0  0  0  0  0
   15.6188   50.3560   16.4151 C   0  0  0  0  0  0  0  0  0  0  0  0
   15.2294   51.3573   15.4971 N   0  0  0  0  0  0  0  0  0  0  0  0
   16.0635   52.5072   15.2810 C   0  0  0  0  0  0  0  0  0  0  0  0
   17.1555   52.5247   15.9058 O   0  0  0  0  0  0  0  0  0  0  0  0
   15.6554   53.5754   14.3919 C   0  0  0  0  0  0  0  0  0  0  0  0
   14.4972   53.6736   13.7427 N   0  0  0  0  0  0  0  0  0  0  0  0
   14.4893   54.8040   13.0164 N   0  0  0  0  0  0  0  0  0  0  0  0
   15.6532   55.4213   13.2113 C   0  0  0  0  0  0  0  0  0  0  0  0
   16.1078   56.7107   12.6175 C   0  0  0  0  0  0  0  0  0  0  0  0
   16.4236   54.6735   14.0791 C   0  0  0  0  0  0  0  0  0  0  0  0
   17.7352   54.9763   14.5497 N   0  0  0  0  0  0  0  0  0  0  0  0
  1  2  1  0
  2  3  2  0
  3  4  1  0
  4  5  1  0
  5  6  2  0
  6  7  1  0
  7  8  1  0
  8  9  2  0
  8 10  1  0
 10 11  2  0
 11 12  1  0
 12 13  1  0
 13 14  1  0
 13 15  2  0
 15 16  1  0
  6  2  1  0
 15 10  1  0
M  END
$$$$
