
     RDKit          3D

 39 44  0  0  0  0  0  0  0  0999 V2000
   12.0424   47.9541   19.8468 C   0  0  0  0  0  0  0  0  0  0  0  0
   13.1273   48.3276   18.8736 C   0  0  0  0  0  0  0  0  0  0  0  0
   14.1410   47.4335   18.6289 C   0  0  0  0  0  0  0  0  0  0  0  0
   15.1098   47.8455   17.7020 C   0  0  0  0  0  0  0  0  0  0  0  0
   15.0505   49.0690   17.0765 C   0  0  0  0  0  0  0  0  0  0  0  0
   15.8253   49.7130   16.1598 N   0  0  0  0  0  0  0  0  0  0  0  0
   15.2831   50.9347   15.8855 C   0  0  0  0  0  0  0  0  0  0  0  0
   15.8729   51.8917   14.9349 C   0  0  0  0  0  0  0  0  0  0  0  0
   15.6855   53.2425   15.0750 C   0  0  0  0  0  0  0  0  0  0  0  0
   16.2151   54.1878   14.2116 C   0  0  0  0  0  0  0  0  0  0  0  0
   16.9719   53.7751   13.1501 C   0  0  0  0  0  0  0  0  0  0  0  0
   17.5852   54.7248   12.2296 C   0  0  0  0  0  0  0  0  0  0  0  0
   17.3803   56.0896   12.6522 N   0  0  0  0  0  0  0  0  0  0  0  0
   18.1350   56.8669   13.4434 C   0  0  0  0  0  0  0  0  0  0  0  0
   19.4379   56.5664   14.0781 C   0  0  0  0  0  0  0  0  0  0  0  0
   19.5662   56.9449   15.5063 C   0  0  0  0  0  0  0  0  0  0  0  0
   20.8381   56.8781   15.9848 F   0  0  0  0  0  0  0  0  0  0  0  0
   17.4547   58.0532   13.5651 N   0  0  0  0  0  0  0  0  0  0  0  0
   16.3179   58.0251   12.8804 C   0  0  0  0  0  0  0  0  0  0  0  0
   15.2768   58.9439   12.6855 C   0  0  0  0  0  0  0  0  0  0  0  0
   14.1749   58.6326   11.9116 C   0  0  0  0  0  0  0  0  0  0  0  0
   13.0988   59.6309   11.7212 C   0  0  0  0  0  0  0  0  0  0  0  0
   11.8961   59.2048   11.5924 O   0  0  0  0  0  0  0  0  0  0  0  0
   13.3258   61.0140   11.6744 N   0  0  0  0  0  0  0  0  0  0  0  0
   12.3155   62.0111   11.3542 C   0  0  0  0  0  0  0  0  0  0  0  0
   12.2800   62.2991    9.8482 C   0  0  0  0  0  0  0  0  0  0  0  0
   12.6011   63.2792   12.0777 C   0  0  0  0  0  0  0  0  0  0  0  0
   13.2340   63.4401   13.2761 C   0  0  0  0  0  0  0  0  0  0  0  0
   13.2591   64.7559   13.4889 O   0  0  0  0  0  0  0  0  0  0  0  0
   12.6804   65.3792   12.4908 C   0  0  0  0  0  0  0  0  0  0  0  0
   12.2580   64.4825   11.5917 N   0  0  0  0  0  0  0  0  0  0  0  0
   14.1253   57.3928   11.3354 C   0  0  0  0  0  0  0  0  0  0  0  0
   15.1549   56.4841   11.5271 C   0  0  0  0  0  0  0  0  0  0  0  0
   16.2495   56.8006   12.2975 C   0  0  0  0  0  0  0  0  0  0  0  0
   17.1604   52.3952   13.0103 C   0  0  0  0  0  0  0  0  0  0  0  0
   16.6326   51.4606   13.8699 C   0  0  0  0  0  0  0  0  0  0  0  0
   14.2199   51.0176   16.6126 O   0  0  0  0  0  0  0  0  0  0  0  0
   14.0159   49.9560   17.3417 C   0  0  0  0  0  0  0  0  0  0  0  0
   13.0496   49.5546   18.2598 C   0  0  0  0  0  0  0  0  0  0  0  0
  1  2  1  0
  2  3  2  0
  3  4  1  0
  4  5  2  0
  5  6  1  0
  6  7  2  0
  7  8  1  0
  8  9  2  0
  9 10  1  0
 10 11  2  0
 11 12  1  0
 12 13  1  0
 13 14  1  0
 14 15  1  0
 15 16  1  0
 16 17  1  0
 14 18  2  0
 18 19  1  0
 19 20  2  0
 20 21  1  0
 21 22  1  0
 22 23  2  0
 22 24  1  0
 24 25  1  0
 25 26  1  0
 25 27  1  0
 27 28  2  0
 28 29  1  0
 29 30  1  0
 30 31  2  0
 21 32  2  0
 32 33  1  0
 33 34  2  0
 11 35  1  0
 35 36  2  0
  7 37  1  0
 37 38  1  0
 38 39  2  0
 39  2  1  0
 38  5  1  0
 36  8  1  0
 34 13  1  0
 34 19  1  0
 31 27  1  0
M  END
$$$$
