
     RDKit          3D

 34 38  0  0  0  0  0  0  0  0999 V2000
   17.2281   93.0802   63.4274 C   0  0  0  0  0  0  0  0  0  0  0  0
   16.2390   92.6210   62.3732 C   0  0  0  0  0  0  0  0  0  0  0  0
   15.3095   91.5954   62.9306 C   0  0  0  0  0  0  0  0  0  0  0  0
   15.4544   93.7597   61.8388 C   0  0  0  0  0  0  0  0  0  0  0  0
   14.1050   93.9307   61.8507 N   0  0  0  0  0  0  0  0  0  0  0  0
   13.8130   95.0994   61.2636 C   0  0  0  0  0  0  0  0  0  0  0  0
   12.4732   95.6225   61.0894 C   0  0  0  0  0  0  0  0  0  0  0  0
   12.0468   96.8387   60.6312 C   0  0  0  0  0  0  0  0  0  0  0  0
   10.6488   96.8157   60.6651 C   0  0  0  0  0  0  0  0  0  0  0  0
    9.8592   97.9752   60.2368 C   0  0  0  0  0  0  0  0  0  0  0  0
   10.4405   98.8322   59.3378 O   0  0  0  0  0  0  0  0  0  0  0  0
   10.3270  100.1659   59.1206 C   0  0  0  0  0  0  0  0  0  0  0  0
    9.5994  101.0131   59.9417 C   0  0  0  0  0  0  0  0  0  0  0  0
    9.5103  102.3720   59.6824 C   0  0  0  0  0  0  0  0  0  0  0  0
   10.1594  102.8778   58.5890 C   0  0  0  0  0  0  0  0  0  0  0  0
   10.8947  102.0141   57.7625 C   0  0  0  0  0  0  0  0  0  0  0  0
   11.0018  100.6697   57.9911 C   0  0  0  0  0  0  0  0  0  0  0  0
   11.7605   99.7686   57.1365 C   0  0  0  0  0  0  0  0  0  0  0  0
   11.5110   98.4259   57.1565 C   0  0  0  0  0  0  0  0  0  0  0  0
   12.2520   97.5703   56.3299 C   0  0  0  0  0  0  0  0  0  0  0  0
   13.1931   98.0934   55.5351 N   0  0  0  0  0  0  0  0  0  0  0  0
   13.4606   99.4348   55.4981 C   0  0  0  0  0  0  0  0  0  0  0  0
   14.4696   99.9342   54.6338 N   0  0  0  0  0  0  0  0  0  0  0  0
   14.5535  101.3464   54.3774 C   0  0  0  0  0  0  0  0  0  0  0  0
   15.5242  101.5888   53.2719 C   0  0  0  0  0  0  0  0  0  0  0  0
   15.3403  100.6450   52.1054 C   0  0  0  0  0  0  0  0  0  0  0  0
   16.3557  100.9155   51.1893 O   0  0  0  0  0  0  0  0  0  0  0  0
   15.4878   99.1997   52.5261 C   0  0  0  0  0  0  0  0  0  0  0  0
   15.3914   99.0396   54.0256 C   0  0  0  0  0  0  0  0  0  0  0  0
   12.7251  100.2029   56.3058 N   0  0  0  0  0  0  0  0  0  0  0  0
   10.3475   95.6421   61.1202 O   0  0  0  0  0  0  0  0  0  0  0  0
   11.3613   94.9089   61.3829 N   0  0  0  0  0  0  0  0  0  0  0  0
   14.9799   95.6423   60.8936 N   0  0  0  0  0  0  0  0  0  0  0  0
   15.9309   94.8239   61.2487 O   0  0  0  0  0  0  0  0  0  0  0  0
  1  2  1  0
  2  3  1  0
  2  4  1  0
  4  5  2  0
  5  6  1  0
  6  7  1  0
  7  8  1  0
  8  9  2  0
  9 10  1  0
 10 11  1  0
 11 12  1  0
 12 13  2  0
 13 14  1  0
 14 15  2  0
 15 16  1  0
 16 17  2  0
 17 18  1  0
 18 19  2  0
 19 20  1  0
 20 21  2  0
 21 22  1  0
 22 23  1  0
 23 24  1  0
 24 25  1  0
 25 26  1  0
 26 27  1  0
 26 28  1  0
 28 29  1  0
 22 30  2  0
  9 31  1  0
 31 32  1  0
  6 33  2  0
 33 34  1  0
 34  4  1  0
 32  7  2  0
 17 12  1  0
 30 18  1  0
 29 23  1  0
M  END
$$$$
