
     RDKit          3D

 30 34  0  0  0  0  0  0  0  0999 V2000
   17.8085   54.0941   12.3226 C   0  0  0  0  0  0  0  0  0  0  0  0
   16.5020   54.5479   12.9723 C   0  0  1  0  0  0  0  0  0  0  0  0
   15.5605   54.9431   11.9479 N   0  0  0  0  0  0  0  0  0  0  0  0
   14.8238   56.1708   12.0588 C   0  0  0  0  0  0  0  0  0  0  0  0
   15.1941   57.0350   12.8889 O   0  0  0  0  0  0  0  0  0  0  0  0
   13.6914   56.4312   11.2565 N   0  0  0  0  0  0  0  0  0  0  0  0
   13.0950   57.7250   11.2352 C   0  0  0  0  0  0  0  0  0  0  0  0
   12.2341   58.3588   10.7216 N   0  0  0  0  0  0  0  0  0  0  0  0
   11.9599   59.5836   10.9588 N   0  0  0  0  0  0  0  0  0  0  0  0
   12.5513   60.2972   11.7619 C   0  0  0  0  0  0  0  0  0  0  0  0
   12.5693   61.6696   12.3160 C   0  0  0  0  0  0  0  0  0  0  0  0
   13.6182   61.9518   13.3326 C   0  0  0  0  0  0  0  0  0  0  0  0
   12.2066   61.8286   13.8005 C   0  0  0  0  0  0  0  0  0  0  0  0
   13.8186   59.0444   12.3927 S   0  0  0  0  0  0  0  0  0  0  0  0
   15.9140   53.4260   13.7535 C   0  0  0  0  0  0  0  0  0  0  0  0
   15.6871   53.5311   15.1188 C   0  0  0  0  0  0  0  0  0  0  0  0
   15.1339   52.4707   15.8477 C   0  0  0  0  0  0  0  0  0  0  0  0
   14.8050   51.2993   15.2129 C   0  0  0  0  0  0  0  0  0  0  0  0
   14.2304   50.1862   15.9504 C   0  0  0  0  0  0  0  0  0  0  0  0
   13.0607   50.3330   16.8458 C   0  0  0  0  0  0  0  0  0  0  0  0
   14.3601   50.2650   17.4891 C   0  0  0  0  0  0  0  0  0  0  0  0
   14.9366   49.0767   18.0505 N   0  0  0  0  0  0  0  0  0  0  0  0
   15.7698   49.3254   19.2025 C   0  0  0  0  0  0  0  0  0  0  0  0
   16.8219   48.2678   19.2732 C   0  0  0  0  0  0  0  0  0  0  0  0
   16.5552   47.1612   20.2199 C   0  0  0  0  0  0  0  0  0  0  0  0
   15.5712   47.3816   21.1451 O   0  0  0  0  0  0  0  0  0  0  0  0
   15.6549   48.7064   21.5752 C   0  0  0  0  0  0  0  0  0  0  0  0
   15.0089   49.5403   20.4605 C   0  0  0  0  0  0  0  0  0  0  0  0
   15.0323   51.2027   13.8624 C   0  0  0  0  0  0  0  0  0  0  0  0
   15.5812   52.2519   13.1330 C   0  0  0  0  0  0  0  0  0  0  0  0
  2  1  1  6
  2  3  1  0
  3  4  1  0
  4  5  2  0
  4  6  1  0
  6  7  1  0
  7  8  2  0
  8  9  1  0
  9 10  2  0
 10 11  1  0
 11 12  1  0
 12 13  1  0
 10 14  1  0
  2 15  1  0
 15 16  2  0
 16 17  1  0
 17 18  2  0
 18 19  1  0
 19 20  1  0
 20 21  1  0
 21 22  1  0
 22 23  1  0
 23 24  1  0
 24 25  1  0
 25 26  1  0
 26 27  1  0
 27 28  1  0
 18 29  1  0
 29 30  2  0
 14  7  1  0
 30 15  1  0
 13 11  1  0
 21 19  1  0
 28 23  1  0
M  END
$$$$
