
     RDKit          3D

 28 32  0  0  0  0  0  0  0  0999 V2000
   35.3097   82.9417   51.7374 O   0  0  0  0  0  0  0  0  0  0  0  0
   35.8400   82.6891   50.6266 C   0  0  0  0  0  0  0  0  0  0  0  0
   37.3156   82.5860   50.5158 C   0  0  0  0  0  0  0  0  0  0  0  0
   37.8354   81.9221   51.6876 N   0  0  0  0  0  0  0  0  0  0  0  0
   38.1995   82.5606   52.9208 C   0  0  0  0  0  0  0  0  0  0  0  0
   38.1016   83.8186   53.1239 O   0  0  0  0  0  0  0  0  0  0  0  0
   38.6692   81.5763   53.8351 N   0  0  0  0  0  0  0  0  0  0  0  0
   39.0646   80.4736   53.0128 C   0  0  0  0  0  0  0  0  0  0  0  0
   40.4473   80.6470   52.4256 C   0  0  0  0  0  0  0  0  0  0  0  0
   40.7239   79.2116   51.9598 C   0  0  0  0  0  0  0  0  0  0  0  0
   40.1122   78.4392   53.0543 C   0  0  0  0  0  0  0  0  0  0  0  0
   40.3607   77.1759   53.5096 C   0  0  0  0  0  0  0  0  0  0  0  0
   39.6655   76.6023   54.5802 C   0  0  0  0  0  0  0  0  0  0  0  0
   38.6939   77.3452   55.1951 C   0  0  0  0  0  0  0  0  0  0  0  0
   38.4398   78.6187   54.7399 C   0  0  0  0  0  0  0  0  0  0  0  0
   39.1225   79.1881   53.6849 C   0  0  0  0  0  0  0  0  0  0  0  0
   38.1019   80.5418   51.8996 C   0  0  0  0  0  0  0  0  0  0  0  0
   37.5911   79.6042   51.2402 O   0  0  0  0  0  0  0  0  0  0  0  0
   34.9841   82.5104   49.5060 N   0  0  0  0  0  0  0  0  0  0  0  0
   33.5839   82.7094   49.6161 C   0  0  0  0  0  0  0  0  0  0  0  0
   32.7567   82.5754   48.5236 C   0  0  0  0  0  0  0  0  0  0  0  0
   31.3775   82.7725   48.6373 C   0  0  0  0  0  0  0  0  0  0  0  0
   30.8802   83.1060   49.8854 C   0  0  0  0  0  0  0  0  0  0  0  0
   31.6771   83.2491   51.0022 C   0  0  0  0  0  0  0  0  0  0  0  0
   33.0486   83.0424   50.8404 C   0  0  0  0  0  0  0  0  0  0  0  0
   30.8640   83.5843   52.0767 O   0  0  0  0  0  0  0  0  0  0  0  0
   29.5437   83.2288   51.7167 C   0  0  0  0  0  0  0  0  0  0  0  0
   29.5732   83.3617   50.3100 O   0  0  0  0  0  0  0  0  0  0  0  0
  1  2  2  0
  2  3  1  0
  3  4  1  0
  4  5  1  0
  5  6  2  0
  5  7  1  0
  7  8  1  0
  8  9  1  0
  9 10  1  0
 10 11  1  0
 11 12  2  0
 12 13  1  0
 13 14  2  0
 14 15  1  0
 15 16  2  0
  8 17  1  0
 17 18  2  0
  2 19  1  0
 19 20  1  0
 20 21  2  0
 21 22  1  0
 22 23  2  0
 23 24  1  0
 24 25  2  0
 24 26  1  0
 26 27  1  0
 27 28  1  0
 17  4  1  0
 25 20  1  0
 16  8  1  0
 28 23  1  0
 16 11  1  0
M  END
$$$$
