
     RDKit          3D

 37 40  0  0  0  0  0  0  0  0999 V2000
   43.0962   80.8781   53.7430 C   0  0  0  0  0  0  0  0  0  0  0  0
   41.9509   81.2041   53.0859 O   0  0  0  0  0  0  0  0  0  0  0  0
   40.9059   81.6778   53.8292 C   0  0  0  0  0  0  0  0  0  0  0  0
   41.0119   83.1128   53.9197 O   0  0  0  0  0  0  0  0  0  0  0  0
   41.4395   83.5039   55.1637 C   0  0  0  0  0  0  0  0  0  0  0  0
   39.5732   81.3448   53.2303 C   0  0  2  0  0  0  0  0  0  0  0  0
   38.6234   80.9265   54.3653 C   0  0  0  0  0  0  0  0  0  0  0  0
   39.7195   80.1514   52.4268 O   0  0  0  0  0  0  0  0  0  0  0  0
   39.8785   80.1996   51.0656 C   0  0  0  0  0  0  0  0  0  0  0  0
   40.7188   79.3949   50.3474 C   0  0  0  0  0  0  0  0  0  0  0  0
   40.8122   79.5153   48.9831 C   0  0  0  0  0  0  0  0  0  0  0  0
   40.0628   80.4472   48.3099 C   0  0  0  0  0  0  0  0  0  0  0  0
   40.1802   80.6312   46.3959 Br  0  0  0  0  0  0  0  0  0  0  0  0
   39.2037   81.2781   48.9908 C   0  0  0  0  0  0  0  0  0  0  0  0
   39.1195   81.1448   50.3774 C   0  0  0  0  0  0  0  0  0  0  0  0
   38.2530   82.0132   51.1864 C   0  0  1  0  0  0  0  0  0  0  0  0
   36.9279   81.3873   51.5514 C   0  0  1  0  0  0  0  0  0  0  0  0
   36.7172   81.6907   53.0161 N   0  0  0  0  0  0  0  0  0  0  0  0
   35.7648   81.9729   50.8790 C   0  0  0  0  0  0  0  0  0  0  0  0
   35.2714   83.0626   51.3833 O   0  0  0  0  0  0  0  0  0  0  0  0
   35.0886   81.4936   49.7263 N   0  0  0  0  0  0  0  0  0  0  0  0
   35.6091   80.3212   49.1329 C   0  0  0  0  0  0  0  0  0  0  0  0
   36.3741   80.4814   47.8653 C   0  0  0  0  0  0  0  0  0  0  0  0
   34.4449   79.3730   48.8109 C   0  0  0  0  0  0  0  0  0  0  0  0
   33.9495   82.2519   49.2474 C   0  0  0  0  0  0  0  0  0  0  0  0
   33.7332   82.2047   47.7736 C   0  0  0  0  0  0  0  0  0  0  0  0
   32.7023   82.0233   50.0171 C   0  0  0  0  0  0  0  0  0  0  0  0
   31.8195   81.0592   49.5958 C   0  0  0  0  0  0  0  0  0  0  0  0
   30.6303   80.7874   50.2386 C   0  0  0  0  0  0  0  0  0  0  0  0
   30.2811   81.4884   51.3476 C   0  0  0  0  0  0  0  0  0  0  0  0
   31.1367   82.4668   51.8078 C   0  0  0  0  0  0  0  0  0  0  0  0
   32.3336   82.7260   51.1439 C   0  0  0  0  0  0  0  0  0  0  0  0
   30.5162   82.9943   52.9320 O   0  0  0  0  0  0  0  0  0  0  0  0
   29.1311   82.6511   52.9175 C   0  0  0  0  0  0  0  0  0  0  0  0
   29.1572   81.4257   52.1841 O   0  0  0  0  0  0  0  0  0  0  0  0
   38.9389   82.4408   52.4778 C   0  0  2  0  0  0  0  0  0  0  0  0
   39.8073   83.4602   52.1230 O   0  0  0  0  0  0  0  0  0  0  0  0
  1  2  1  0
  2  3  1  0
  3  4  1  0
  4  5  1  0
  3  6  1  0
  6  7  1  1
  6  8  1  0
  8  9  1  0
  9 10  2  0
 10 11  1  0
 11 12  2  0
 12 13  1  0
 12 14  1  0
 14 15  2  0
 16 15  1  1
 16 17  1  0
 17 18  1  1
 17 19  1  0
 19 20  2  0
 19 21  1  0
 21 22  1  0
 22 23  1  0
 22 24  1  0
 21 25  1  0
 25 26  1  0
 25 27  1  0
 27 28  2  0
 28 29  1  0
 29 30  2  0
 30 31  1  0
 31 32  2  0
 31 33  1  0
 33 34  1  0
 34 35  1  0
 16 36  1  0
 36 37  1  6
 36  6  1  0
 15  9  1  0
 32 27  1  0
 35 30  1  0
M  END
$$$$
