
     RDKit          3D

 21 22  0  0  0  0  0  0  0  0999 V2000
   13.7384   47.4754   20.6250 C   0  0  0  0  0  0  0  0  0  0  0  0
   14.3921   47.7523   19.2828 C   0  0  0  0  0  0  0  0  0  0  0  0
   14.0729   48.9713   18.7712 O   0  0  0  0  0  0  0  0  0  0  0  0
   15.0206   49.4846   17.9504 C   0  0  0  0  0  0  0  0  0  0  0  0
   14.5965   50.4977   16.9693 C   0  0  0  0  0  0  0  0  0  0  0  0
   13.4187   50.9036   16.9482 O   0  0  0  0  0  0  0  0  0  0  0  0
   15.5262   51.0209   16.0390 N   0  0  0  0  0  0  0  0  0  0  0  0
   15.0313   51.4779   14.7589 C   0  0  0  0  0  0  0  0  0  0  0  0
   15.8086   52.6816   14.2820 C   0  0  0  0  0  0  0  0  0  0  0  0
   17.2336   52.5026   14.4219 N   0  0  0  0  0  0  0  0  0  0  0  0
   18.0823   53.2897   13.6074 C   0  0  0  0  0  0  0  0  0  0  0  0
   19.3220   53.2547   13.8279 O   0  0  0  0  0  0  0  0  0  0  0  0
   17.6202   54.1357   12.5336 C   0  0  0  0  0  0  0  0  0  0  0  0
   17.4276   53.6495   11.2628 C   0  0  0  0  0  0  0  0  0  0  0  0
   16.9788   54.4794   10.2277 C   0  0  0  0  0  0  0  0  0  0  0  0
   16.7338   55.8019   10.5163 C   0  0  0  0  0  0  0  0  0  0  0  0
   16.9135   56.3180   11.7633 C   0  0  0  0  0  0  0  0  0  0  0  0
   17.3626   55.4620   12.7738 C   0  0  0  0  0  0  0  0  0  0  0  0
   17.5502   55.9359   14.0118 F   0  0  0  0  0  0  0  0  0  0  0  0
   17.8230   51.5683   15.3441 C   0  0  0  0  0  0  0  0  0  0  0  0
   16.9202   51.0771   16.4020 C   0  0  0  0  0  0  0  0  0  0  0  0
  1  2  1  0
  2  3  1  0
  3  4  1  0
  4  5  1  0
  5  6  2  0
  5  7  1  0
  7  8  1  0
  8  9  1  0
  9 10  1  0
 10 11  1  0
 11 12  2  0
 11 13  1  0
 13 14  2  0
 14 15  1  0
 15 16  2  0
 16 17  1  0
 17 18  2  0
 18 19  1  0
 10 20  1  0
 20 21  1  0
 21  7  1  0
 18 13  1  0
M  END
$$$$
