
     RDKit          3D

 28 31  0  0  0  0  0  0  0  0999 V2000
   12.7769   94.5596   66.4881 C   0  0  0  0  0  0  0  0  0  0  0  0
   13.3999   93.9040   65.4063 O   0  0  0  0  0  0  0  0  0  0  0  0
   13.4449   94.4604   64.1325 C   0  0  0  0  0  0  0  0  0  0  0  0
   12.4077   95.2248   63.6237 C   0  0  0  0  0  0  0  0  0  0  0  0
   12.4757   95.7681   62.3537 C   0  0  0  0  0  0  0  0  0  0  0  0
   11.4391   96.5479   61.8102 C   0  0  0  0  0  0  0  0  0  0  0  0
   11.5220   97.0758   60.5537 C   0  0  0  0  0  0  0  0  0  0  0  0
   12.6146   96.8531   59.8072 N   0  0  0  0  0  0  0  0  0  0  0  0
   12.6627   97.4329   58.4747 C   0  0  0  0  0  0  0  0  0  0  0  0
   13.6280   96.1137   60.2892 C   0  0  0  0  0  0  0  0  0  0  0  0
   14.6573   95.8985   59.5984 O   0  0  0  0  0  0  0  0  0  0  0  0
   13.5769   95.5669   61.5518 C   0  0  0  0  0  0  0  0  0  0  0  0
   14.6175   94.8033   62.0545 C   0  0  0  0  0  0  0  0  0  0  0  0
   14.5433   94.2647   63.3222 C   0  0  0  0  0  0  0  0  0  0  0  0
   15.6053   93.5020   63.7993 O   0  0  0  0  0  0  0  0  0  0  0  0
   16.3537   92.6808   62.9160 C   0  0  0  0  0  0  0  0  0  0  0  0
   10.4139   97.9218   59.9724 C   0  0  0  0  0  0  0  0  0  0  0  0
    9.8139   98.6524   61.1585 C   0  0  0  0  0  0  0  0  0  0  0  0
    8.5458   99.3351   60.6186 C   0  0  0  0  0  0  0  0  0  0  0  0
   10.7072   99.7610   61.6440 C   0  0  0  0  0  0  0  0  0  0  0  0
    9.4264   97.8002   62.1989 N   0  0  0  0  0  0  0  0  0  0  0  0
   10.2689   96.7624   62.6594 C   0  0  1  0  0  0  0  0  0  0  0  0
    9.4197   95.5485   62.7715 C   0  0  0  0  0  0  0  0  0  0  0  0
    8.8792   95.0836   63.9403 C   0  0  0  0  0  0  0  0  0  0  0  0
    8.0814   93.9378   63.9579 C   0  0  0  0  0  0  0  0  0  0  0  0
    7.8184   93.2429   62.7877 C   0  0  0  0  0  0  0  0  0  0  0  0
    8.3581   93.7076   61.6246 C   0  0  0  0  0  0  0  0  0  0  0  0
    9.1360   94.8329   61.6364 C   0  0  0  0  0  0  0  0  0  0  0  0
  1  2  1  0
  2  3  1  0
  3  4  2  0
  4  5  1  0
  5  6  1  0
  6  7  2  0
  7  8  1  0
  8  9  1  0
  8 10  1  0
 10 11  2  0
 10 12  1  0
 12 13  1  0
 13 14  2  0
 14 15  1  0
 15 16  1  0
  7 17  1  0
 17 18  1  0
 18 19  1  0
 18 20  1  0
 18 21  1  0
 21 22  1  0
 22 23  1  6
 23 24  2  0
 24 25  1  0
 25 26  2  0
 26 27  1  0
 27 28  2  0
 14  3  1  0
 28 23  1  0
 12  5  2  0
 22  6  1  0
M  END
$$$$
