
     RDKit          3D

 21 24  0  0  0  0  0  0  0  0999 V2000
   18.1736   46.8344   23.0927 C   0  0  0  0  0  0  0  0  0  0  0  0
   18.1646   47.1657   21.7103 N   0  0  0  0  0  0  0  0  0  0  0  0
   18.0087   46.0216   20.8365 C   0  0  0  0  0  0  0  0  0  0  0  0
   17.6249   46.4671   19.4240 C   0  0  0  0  0  0  0  0  0  0  0  0
   18.4570   47.5802   19.0896 N   0  0  0  0  0  0  0  0  0  0  0  0
   18.2017   48.4543   18.0080 C   0  0  0  0  0  0  0  0  0  0  0  0
   19.1668   48.8845   17.1239 C   0  0  0  0  0  0  0  0  0  0  0  0
   18.9045   49.7310   16.0810 C   0  0  0  0  0  0  0  0  0  0  0  0
   17.6332   50.1889   15.8809 C   0  0  0  0  0  0  0  0  0  0  0  0
   16.6248   49.7804   16.7500 C   0  0  0  0  0  0  0  0  0  0  0  0
   15.3298   50.2218   16.5797 C   0  0  0  0  0  0  0  0  0  0  0  0
   14.3826   49.7768   17.4779 C   0  0  0  0  0  0  0  0  0  0  0  0
   13.0731   50.2012   17.3348 C   0  0  0  0  0  0  0  0  0  0  0  0
   12.0692   49.7864   18.2112 C   0  0  0  0  0  0  0  0  0  0  0  0
   12.3974   48.9320   19.2434 C   0  0  0  0  0  0  0  0  0  0  0  0
   13.6929   48.4934   19.4097 C   0  0  0  0  0  0  0  0  0  0  0  0
   14.6885   48.9200   18.5204 C   0  0  0  0  0  0  0  0  0  0  0  0
   15.9615   48.5069   18.6602 N   0  0  0  0  0  0  0  0  0  0  0  0
   16.9192   48.9149   17.8079 C   0  0  0  0  0  0  0  0  0  0  0  0
   19.6323   47.8347   19.9009 C   0  0  0  0  0  0  0  0  0  0  0  0
   19.2581   48.0029   21.3469 C   0  0  0  0  0  0  0  0  0  0  0  0
  1  2  1  0
  2  3  1  0
  3  4  1  0
  4  5  1  0
  5  6  1  0
  6  7  2  0
  7  8  1  0
  8  9  2  0
  9 10  1  0
 10 11  2  0
 11 12  1  0
 12 13  2  0
 13 14  1  0
 14 15  2  0
 15 16  1  0
 16 17  2  0
 17 18  1  0
 18 19  2  0
  5 20  1  0
 20 21  1  0
 21  2  1  0
 19  6  1  0
 19 10  1  0
 17 12  1  0
M  END
$$$$
