
     RDKit          3D

 18 18  0  0  0  0  0  0  0  0999 V2000
   18.3625   49.7724   17.1461 C   0  0  0  0  0  0  0  0  0  0  0  0
   16.9198   49.5368   17.4079 C   0  0  0  0  0  0  0  0  0  0  0  0
   16.5322   48.8011   18.5101 C   0  0  0  0  0  0  0  0  0  0  0  0
   15.1819   48.5806   18.7551 C   0  0  0  0  0  0  0  0  0  0  0  0
   14.6809   47.5567   20.2917 Br  0  0  0  0  0  0  0  0  0  0  0  0
   14.2491   49.1031   17.8887 C   0  0  0  0  0  0  0  0  0  0  0  0
   14.6689   49.8418   16.7841 C   0  0  0  0  0  0  0  0  0  0  0  0
   13.6745   50.3986   15.8609 C   0  0  0  0  0  0  0  0  0  0  0  0
   16.0005   50.0698   16.5262 C   0  0  0  0  0  0  0  0  0  0  0  0
   16.3946   50.8316   15.3844 N   0  0  0  0  0  0  0  0  0  0  0  0
   16.1254   52.2517   15.3439 C   0  0  0  0  0  0  0  0  0  0  0  0
   15.8630   52.8689   16.3946 O   0  0  0  0  0  0  0  0  0  0  0  0
   16.1555   52.9552   14.1224 N   0  0  0  0  0  0  0  0  0  0  0  0
   16.8403   54.1758   13.8742 C   0  0  0  0  0  0  0  0  0  0  0  0
   17.2367   54.9026   14.8212 N   0  0  0  0  0  0  0  0  0  0  0  0
   17.0711   54.5629   12.4934 N   0  0  0  0  0  0  0  0  0  0  0  0
   17.6171   55.8528   12.2244 C   0  0  0  0  0  0  0  0  0  0  0  0
   16.7483   53.6499   11.4468 C   0  0  0  0  0  0  0  0  0  0  0  0
  1  2  1  0
  2  3  2  0
  3  4  1  0
  4  5  1  0
  4  6  2  0
  6  7  1  0
  7  8  1  0
  7  9  2  0
  9 10  1  0
 10 11  1  0
 11 12  2  0
 11 13  1  0
 13 14  1  0
 14 15  2  0
 14 16  1  0
 16 17  1  0
 16 18  1  0
  9  2  1  0
M  END
$$$$
