
     RDKit          3D

 22 24  0  0  0  0  0  0  0  0999 V2000
   15.4441   54.5140   12.5237 C   0  0  0  0  0  0  0  0  0  0  0  0
   14.9551   55.9068   12.4567 C   0  0  0  0  0  0  0  0  0  0  0  0
   13.8489   56.2448   11.7090 C   0  0  0  0  0  0  0  0  0  0  0  0
   13.4236   57.5749   11.6747 C   0  0  0  0  0  0  0  0  0  0  0  0
   14.0870   58.5476   12.3714 C   0  0  0  0  0  0  0  0  0  0  0  0
   15.1843   58.2101   13.1128 C   0  0  0  0  0  0  0  0  0  0  0  0
   15.6177   56.8864   13.1540 C   0  0  0  0  0  0  0  0  0  0  0  0
   16.8003   56.5507   13.9607 C   0  0  0  0  0  0  0  0  0  0  0  0
   13.4125   59.8436   12.1459 C   0  0  0  0  0  0  0  0  0  0  0  0
   13.7989   60.9973   12.6295 C   0  0  0  0  0  0  0  0  0  0  0  0
   13.0200   62.2002   12.4973 C   0  0  0  0  0  0  0  0  0  0  0  0
   13.2595   63.3887   13.1451 C   0  0  0  0  0  0  0  0  0  0  0  0
   12.4252   64.5001   12.9751 C   0  0  0  0  0  0  0  0  0  0  0  0
   11.3388   64.4136   12.1427 C   0  0  0  0  0  0  0  0  0  0  0  0
   10.4988   65.5416   11.9700 N   0  0  0  0  0  0  0  0  0  0  0  0
   10.7057   66.8238   12.5812 C   0  0  0  0  0  0  0  0  0  0  0  0
    9.3226   65.3864   11.0985 C   0  0  0  0  0  0  0  0  0  0  0  0
   11.0870   63.2293   11.4863 C   0  0  0  0  0  0  0  0  0  0  0  0
   11.9168   62.1464   11.6650 C   0  0  0  0  0  0  0  0  0  0  0  0
   12.3003   59.5669   11.2634 C   0  0  0  0  0  0  0  0  0  0  0  0
   11.4662   60.4005   10.8176 O   0  0  0  0  0  0  0  0  0  0  0  0
   12.3274   58.1559   10.9861 N   0  0  0  0  0  0  0  0  0  0  0  0
  1  2  1  0
  2  3  2  0
  3  4  1  0
  4  5  2  0
  5  6  1  0
  6  7  2  0
  7  8  1  0
  5  9  1  0
  9 10  2  0
 10 11  1  0
 11 12  2  0
 12 13  1  0
 13 14  2  0
 14 15  1  0
 15 16  1  0
 15 17  1  0
 14 18  1  0
 18 19  2  0
  9 20  1  0
 20 21  2  0
 20 22  1  0
  7  2  1  0
 19 11  1  0
 22  4  1  0
M  END
$$$$
