
     RDKit          3D

 32 35  0  0  0  0  0  0  0  0999 V2000
   -0.8725   60.5373   29.2331 C   0  0  0  0  0  0  0  0  0  0  0  0
   -1.1742   61.1089   30.5831 C   0  0  0  0  0  0  0  0  0  0  0  0
   -2.5885   61.5365   30.7075 C   0  0  0  0  0  0  0  0  0  0  0  0
   -3.5927   60.6512   30.4254 C   0  0  0  0  0  0  0  0  0  0  0  0
   -4.9264   60.9648   30.5132 C   0  0  0  0  0  0  0  0  0  0  0  0
   -5.9587   59.9769   30.1990 C   0  0  0  0  0  0  0  0  0  0  0  0
   -7.2706   60.2874   30.6375 N   0  0  0  0  0  0  0  0  0  0  0  0
   -7.5960   59.9913   31.9888 C   0  0  0  0  0  0  0  0  0  0  0  0
   -8.3839   58.6999   31.9328 C   0  0  0  0  0  0  0  0  0  0  0  0
   -9.0169   58.6944   30.5749 C   0  0  1  0  0  0  0  0  0  0  0  0
  -10.3972   58.7785   30.5586 O   0  0  0  0  0  0  0  0  0  0  0  0
  -11.3334   57.8119   30.8371 C   0  0  0  0  0  0  0  0  0  0  0  0
  -12.6593   57.9084   30.5125 C   0  0  0  0  0  0  0  0  0  0  0  0
  -13.5107   56.8871   30.8396 C   0  0  0  0  0  0  0  0  0  0  0  0
  -13.0956   55.7389   31.4946 C   0  0  0  0  0  0  0  0  0  0  0  0
  -14.0359   54.6701   31.8557 C   0  0  0  0  0  0  0  0  0  0  0  0
  -14.0818   53.6874   31.0458 O   0  0  0  0  0  0  0  0  0  0  0  0
  -14.8525   54.6631   32.9899 N   0  0  0  0  0  0  0  0  0  0  0  0
  -14.7184   55.7746   33.9136 C   0  0  0  0  0  0  0  0  0  0  0  0
  -16.0945   56.2264   34.3084 C   0  0  0  0  0  0  0  0  0  0  0  0
  -17.1726   55.5884   33.4677 C   0  0  0  0  0  0  0  0  0  0  0  0
  -17.1483   56.0444   32.0424 C   0  0  0  0  0  0  0  0  0  0  0  0
  -17.1283   54.0945   33.5176 C   0  0  0  0  0  0  0  0  0  0  0  0
  -15.7584   53.5703   33.2095 C   0  0  0  0  0  0  0  0  0  0  0  0
  -11.7596   55.6443   31.8194 C   0  0  0  0  0  0  0  0  0  0  0  0
  -10.9082   56.6730   31.4883 C   0  0  0  0  0  0  0  0  0  0  0  0
   -8.3499   59.8403   29.8269 C   0  0  0  0  0  0  0  0  0  0  0  0
   -5.2278   62.2408   30.9074 C   0  0  0  0  0  0  0  0  0  0  0  0
   -4.2230   63.1705   31.2033 C   0  0  0  0  0  0  0  0  0  0  0  0
   -2.8963   62.8441   31.1116 C   0  0  0  0  0  0  0  0  0  0  0  0
   -1.8454   63.7175   31.3899 O   0  0  0  0  0  0  0  0  0  0  0  0
   -1.9656   64.9834   31.9110 C   0  0  0  0  0  0  0  0  0  0  0  0
  1  2  1  0
  2  3  1  0
  3  4  2  0
  4  5  1  0
  5  6  1  0
  6  7  1  0
  7  8  1  0
  8  9  1  0
  9 10  1  0
 10 11  1  1
 11 12  1  0
 12 13  2  0
 13 14  1  0
 14 15  2  0
 15 16  1  0
 16 17  2  0
 16 18  1  0
 18 19  1  0
 19 20  1  0
 20 21  1  0
 21 22  1  0
 21 23  1  0
 23 24  1  0
 15 25  1  0
 25 26  2  0
 10 27  1  0
  5 28  2  0
 28 29  1  0
 29 30  2  0
 30 31  1  0
 31 32  1  0
 30  3  1  0
 27  7  1  0
 26 12  1  0
 24 18  1  0
M  END
$$$$
