
     RDKit          3D

 24 26  0  0  0  0  0  0  0  0999 V2000
   14.9336   91.1367   63.0901 C   0  0  0  0  0  0  0  0  0  0  0  0
   14.1576   91.5757   64.2808 C   0  0  0  0  0  0  0  0  0  0  0  0
   13.6661   90.3475   65.0693 C   0  0  0  0  0  0  0  0  0  0  0  0
   12.9298   92.3743   64.0069 C   0  0  0  0  0  0  0  0  0  0  0  0
   13.0964   93.6075   63.3255 N   0  0  0  0  0  0  0  0  0  0  0  0
   14.1795   94.3655   63.3560 N   0  0  0  0  0  0  0  0  0  0  0  0
   13.9891   95.4789   62.5855 C   0  0  0  0  0  0  0  0  0  0  0  0
   12.7157   95.3793   62.0641 C   0  0  0  0  0  0  0  0  0  0  0  0
   12.0586   96.3510   61.1602 C   0  0  0  0  0  0  0  0  0  0  0  0
   11.1711   95.9967   60.3725 O   0  0  0  0  0  0  0  0  0  0  0  0
   12.4685   97.7031   61.2146 N   0  0  0  0  0  0  0  0  0  0  0  0
   12.1517   98.7069   60.2804 C   0  0  0  0  0  0  0  0  0  0  0  0
   11.0450   98.4885   59.4451 C   0  0  0  0  0  0  0  0  0  0  0  0
   10.6272   99.3868   58.4955 C   0  0  0  0  0  0  0  0  0  0  0  0
   11.2988  100.5709   58.3235 C   0  0  0  0  0  0  0  0  0  0  0  0
   10.8265  101.7814   57.1265 S   0  0  0  0  0  4  0  0  0  0  0  0
    9.8926  100.9811   55.8125 C   0  0  0  0  0  0  0  0  0  0  0  0
   11.9896  102.5549   56.5726 O   0  0  0  0  0  0  0  0  0  0  0  0
   12.3891  100.8308   59.1179 C   0  0  0  0  0  0  0  0  0  0  0  0
   12.7995   99.8929   60.0858 C   0  0  0  0  0  0  0  0  0  0  0  0
   12.1791   94.2117   62.5353 C   0  0  0  0  0  0  0  0  0  0  0  0
   10.8456   93.6843   62.2722 C   0  0  0  0  0  0  0  0  0  0  0  0
   10.2085   92.6496   63.1156 C   0  0  0  0  0  0  0  0  0  0  0  0
    9.7757   94.0930   63.2821 C   0  0  0  0  0  0  0  0  0  0  0  0
  1  2  1  0
  2  3  1  0
  2  4  1  0
  4  5  1  0
  5  6  1  0
  6  7  2  0
  7  8  1  0
  8  9  1  0
  9 10  2  0
  9 11  1  0
 11 12  1  0
 12 13  2  0
 13 14  1  0
 14 15  2  0
 15 16  1  0
 16 17  1  0
 16 18  2  0
 15 19  1  0
 19 20  2  0
  8 21  2  0
 21 22  1  0
 22 23  1  0
 23 24  1  0
 21  5  1  0
 24 22  1  0
 20 12  1  0
M  END
$$$$
