
     RDKit          3D

 18 19  0  0  0  0  0  0  0  0999 V2000
   16.4144   57.0796   14.0043 O   0  0  0  0  0  0  0  0  0  0  0  0
   15.9715   55.8917   13.9456 C   0  0  0  0  0  0  0  0  0  0  0  0
   16.1114   55.0285   15.1681 C   0  0  0  0  0  0  0  0  0  0  0  0
   16.0265   53.6254   14.8155 N   0  0  0  0  0  0  0  0  0  0  0  0
   15.7006   52.6294   15.7578 C   0  0  0  0  0  0  0  0  0  0  0  0
   15.4762   52.9730   16.9487 O   0  0  0  0  0  0  0  0  0  0  0  0
   15.6073   51.1868   15.4179 C   0  0  0  0  0  0  0  0  0  0  0  0
   15.9444   50.3870   16.4989 O   0  0  0  0  0  0  0  0  0  0  0  0
   15.1070   49.6718   17.3168 C   0  0  0  0  0  0  0  0  0  0  0  0
   13.7448   49.6170   16.9906 C   0  0  0  0  0  0  0  0  0  0  0  0
   12.8319   48.9240   17.7504 C   0  0  0  0  0  0  0  0  0  0  0  0
   13.2447   48.2516   18.8764 C   0  0  0  0  0  0  0  0  0  0  0  0
   14.5814   48.2968   19.2088 C   0  0  0  0  0  0  0  0  0  0  0  0
   14.9727   47.6245   20.3279 F   0  0  0  0  0  0  0  0  0  0  0  0
   15.4990   48.9909   18.4483 C   0  0  0  0  0  0  0  0  0  0  0  0
   16.2916   53.2696   13.4386 C   0  0  0  0  0  0  0  0  0  0  0  0
   15.2145   53.9532   12.6018 C   0  0  0  0  0  0  0  0  0  0  0  0
   15.3632   55.3715   12.7848 N   0  0  0  0  0  0  0  0  0  0  0  0
  1  2  2  0
  2  3  1  0
  3  4  1  0
  4  5  1  0
  5  6  2  0
  5  7  1  0
  7  8  1  0
  8  9  1  0
  9 10  2  0
 10 11  1  0
 11 12  2  0
 12 13  1  0
 13 14  1  0
 13 15  2  0
  4 16  1  0
 16 17  1  0
 17 18  1  0
 18  2  1  0
 15  9  1  0
M  END
$$$$
