
     RDKit          3D

 17 17  0  0  0  0  0  0  0  0999 V2000
   34.7746   79.8426   54.2445 C   0  0  0  0  0  0  0  0  0  0  0  0
   35.5297   80.5909   53.4632 C   0  0  0  0  0  0  0  0  0  0  0  0
   35.1211   80.8046   52.0571 C   0  0  0  0  0  0  0  0  0  0  0  0
   35.4590   82.2014   51.7401 N   0  0  0  0  0  0  0  0  0  0  0  0
   36.7915   82.6481   51.9990 C   0  0  0  0  0  0  0  0  0  0  0  0
   37.6596   82.7116   50.7929 C   0  0  0  0  0  0  0  0  0  0  0  0
   38.5730   81.7843   50.5690 C   0  0  0  0  0  0  0  0  0  0  0  0
   34.4363   83.0151   51.1849 C   0  0  0  0  0  0  0  0  0  0  0  0
   34.6659   84.2171   50.8407 O   0  0  0  0  0  0  0  0  0  0  0  0
   33.0772   82.5595   50.9691 C   0  0  0  0  0  0  0  0  0  0  0  0
   32.1192   82.9265   51.8793 C   0  0  0  0  0  0  0  0  0  0  0  0
   30.7994   82.5257   51.7589 C   0  0  0  0  0  0  0  0  0  0  0  0
   29.4478   83.0186   53.0052 Br  0  0  0  0  0  0  0  0  0  0  0  0
   30.4663   81.7307   50.6761 C   0  0  0  0  0  0  0  0  0  0  0  0
   31.4361   81.3669   49.7659 C   0  0  0  0  0  0  0  0  0  0  0  0
   32.7516   81.7717   49.8936 C   0  0  0  0  0  0  0  0  0  0  0  0
   33.9284   81.2851   48.6900 Cl  0  0  0  0  0  0  0  0  0  0  0  0
  1  2  2  0
  2  3  1  0
  3  4  1  0
  4  5  1  0
  5  6  1  0
  6  7  2  0
  4  8  1  0
  8  9  2  0
  8 10  1  0
 10 11  2  0
 11 12  1  0
 12 13  1  0
 12 14  2  0
 14 15  1  0
 15 16  2  0
 16 17  1  0
 16 10  1  0
M  END
$$$$
