
     RDKit          3D

 25 27  0  0  0  0  0  0  0  0999 V2000
    9.9487   94.8009   63.4650 C   0  0  0  0  0  0  0  0  0  0  0  0
   11.3414   94.4800   63.7525 N   0  0  0  0  0  0  0  0  0  0  0  0
   11.6282   93.5903   64.8226 C   0  0  0  0  0  0  0  0  0  0  0  0
   11.8767   92.1806   64.4089 C   0  0  0  0  0  0  0  0  0  0  0  0
   11.3419   91.6637   63.2576 C   0  0  0  0  0  0  0  0  0  0  0  0
   11.5902   90.3386   62.8761 C   0  0  0  0  0  0  0  0  0  0  0  0
   12.3801   89.5202   63.6514 C   0  0  0  0  0  0  0  0  0  0  0  0
   12.9160   90.0431   64.8085 C   0  0  0  0  0  0  0  0  0  0  0  0
   12.6707   91.3495   65.1836 C   0  0  0  0  0  0  0  0  0  0  0  0
   12.3140   95.0794   62.9268 C   0  0  0  0  0  0  0  0  0  0  0  0
   13.4869   94.4574   62.6076 C   0  0  0  0  0  0  0  0  0  0  0  0
   14.3987   95.0835   61.7995 N   0  0  0  0  0  0  0  0  0  0  0  0
   14.1855   96.2873   61.3070 N   0  0  0  0  0  0  0  0  0  0  0  0
   13.0548   96.9424   61.5865 C   0  0  0  0  0  0  0  0  0  0  0  0
   12.8090   98.2352   61.0666 N   0  0  0  0  0  0  0  0  0  0  0  0
   11.5892   98.6223   60.4730 C   0  0  0  0  0  0  0  0  0  0  0  0
   10.5535   98.0084   60.8380 O   0  0  0  0  0  0  0  0  0  0  0  0
   11.4965   99.6801   59.4797 C   0  0  0  0  0  0  0  0  0  0  0  0
   12.2920   99.7410   58.3651 C   0  0  0  0  0  0  0  0  0  0  0  0
   12.1715  100.7763   57.4324 C   0  0  0  0  0  0  0  0  0  0  0  0
   11.2331  101.7708   57.6226 C   0  0  0  0  0  0  0  0  0  0  0  0
   11.1198  102.7808   56.7070 F   0  0  0  0  0  0  0  0  0  0  0  0
   10.4408  101.7094   58.7335 C   0  0  0  0  0  0  0  0  0  0  0  0
   10.5692  100.6896   59.6395 C   0  0  0  0  0  0  0  0  0  0  0  0
   12.1094   96.3593   62.3909 C   0  0  0  0  0  0  0  0  0  0  0  0
  1  2  1  0
  2  3  1  0
  3  4  1  0
  4  5  2  0
  5  6  1  0
  6  7  2  0
  7  8  1  0
  8  9  2  0
  2 10  1  0
 10 11  2  0
 11 12  1  0
 12 13  2  0
 13 14  1  0
 14 15  1  0
 15 16  1  0
 16 17  2  0
 16 18  1  0
 18 19  2  0
 19 20  1  0
 20 21  2  0
 21 22  1  0
 21 23  1  0
 23 24  2  0
 14 25  2  0
  9  4  1  0
 25 10  1  0
 24 18  1  0
M  END
$$$$
