
     RDKit          3D

 27 31  0  0  0  0  0  0  0  0999 V2000
   13.7682  100.1905   59.4104 C   0  0  0  0  0  0  0  0  0  0  0  0
   13.0701   99.1320   58.7844 O   0  0  0  0  0  0  0  0  0  0  0  0
   12.1932   98.3561   59.5188 C   0  0  0  0  0  0  0  0  0  0  0  0
   10.8388   98.5021   59.3705 C   0  0  0  0  0  0  0  0  0  0  0  0
    9.9828   97.7166   60.1142 C   0  0  0  0  0  0  0  0  0  0  0  0
   10.4393   96.7739   61.0162 C   0  0  0  0  0  0  0  0  0  0  0  0
    9.5992   95.9910   61.7606 C   0  0  0  0  0  0  0  0  0  0  0  0
   10.0402   95.0618   62.6547 C   0  0  0  0  0  0  0  0  0  0  0  0
   11.4084   94.9198   62.7989 C   0  0  0  0  0  0  0  0  0  0  0  0
   11.9061   93.9931   63.6863 C   0  0  0  0  0  0  0  0  0  0  0  0
   13.2386   93.7811   63.8944 C   0  0  0  0  0  0  0  0  0  0  0  0
   13.7049   92.8398   64.7958 O   0  0  0  0  0  0  0  0  0  0  0  0
   13.3175   91.4958   64.7961 C   0  0  0  0  0  0  0  0  0  0  0  0
   14.1129   94.5469   63.1662 C   0  0  0  0  0  0  0  0  0  0  0  0
   15.4693   94.3620   63.3485 O   0  0  0  0  0  0  0  0  0  0  0  0
   16.2771   93.6609   62.4498 C   0  0  0  0  0  0  0  0  0  0  0  0
   13.6400   95.5037   62.2498 C   0  0  0  0  0  0  0  0  0  0  0  0
   12.2918   95.7085   62.0486 C   0  0  0  0  0  0  0  0  0  0  0  0
   11.8188   96.6413   61.1520 C   0  0  0  0  0  0  0  0  0  0  0  0
   12.6718   97.4220   60.4130 C   0  0  0  0  0  0  0  0  0  0  0  0
    9.1679   94.2018   63.4912 C   0  0  0  0  0  0  0  0  0  0  0  0
    7.7869   94.6308   63.4589 N   0  0  0  0  0  0  0  0  0  0  0  0
    6.9607   93.4345   63.6870 C   0  0  0  0  0  0  0  0  0  0  0  0
    6.7837   92.7976   62.3273 C   0  0  0  0  0  0  0  0  0  0  0  0
    7.4781   93.7546   61.3656 C   0  0  0  0  0  0  0  0  0  0  0  0
    7.3485   95.0485   62.1719 C   0  0  2  0  0  0  0  0  0  0  0  0
    8.1430   96.1647   61.5650 C   0  0  0  0  0  0  0  0  0  0  0  0
  1  2  1  0
  2  3  1  0
  3  4  2  0
  4  5  1  0
  5  6  2  0
  6  7  1  0
  7  8  2  0
  8  9  1  0
  9 10  2  0
 10 11  1  0
 11 12  1  0
 12 13  1  0
 11 14  2  0
 14 15  1  0
 15 16  1  0
 14 17  1  0
 17 18  2  0
 18 19  1  0
 19 20  2  0
  8 21  1  0
 21 22  1  0
 22 23  1  0
 23 24  1  0
 24 25  1  0
 26 25  1  6
 26 27  1  0
 20  3  1  0
 26 22  1  0
 19  6  1  0
 27  7  1  0
 18  9  1  0
M  END
$$$$
