
     RDKit          3D

 15 16  0  0  0  0  0  0  0  0999 V2000
   -6.3725   68.4956   30.8346 N   0  0  0  0  0  0  0  0  0  0  0  0
   -5.4322   67.4507   31.1194 C   0  0  0  0  0  0  0  0  0  0  0  0
   -4.6289   67.0872   31.8743 N   0  0  0  0  0  0  0  0  0  0  0  0
   -3.9394   65.9694   31.7980 N   0  0  0  0  0  0  0  0  0  0  0  0
   -3.9841   65.1634   31.0096 C   0  0  0  0  0  0  0  0  0  0  0  0
   -3.5621   63.5832   30.2709 S   0  0  0  0  0  0  0  0  0  0  0  0
   -3.6726   62.2933   31.5128 C   0  0  0  0  0  0  0  0  0  0  0  0
   -3.1246   61.0324   31.0306 C   0  0  0  0  0  0  0  0  0  0  0  0
   -4.0824   60.0498   30.7261 C   0  0  0  0  0  0  0  0  0  0  0  0
   -3.7511   58.8203   30.2304 C   0  0  0  0  0  0  0  0  0  0  0  0
   -2.4008   58.5675   30.0358 C   0  0  0  0  0  0  0  0  0  0  0  0
   -1.4411   59.5003   30.3251 C   0  0  0  0  0  0  0  0  0  0  0  0
    0.2492   59.0890   30.0708 Cl  0  0  0  0  0  0  0  0  0  0  0  0
   -1.8230   60.7514   30.8300 C   0  0  0  0  0  0  0  0  0  0  0  0
   -5.3737   65.9963   29.8994 S   0  0  0  0  0  0  0  0  0  0  0  0
  1  2  1  0
  2  3  2  0
  3  4  1  0
  4  5  2  0
  5  6  1  0
  6  7  1  0
  7  8  1  0
  8  9  2  0
  9 10  1  0
 10 11  2  0
 11 12  1  0
 12 13  1  0
 12 14  2  0
  5 15  1  0
 15  2  1  0
 14  8  1  0
M  END
$$$$
