
     RDKit          3D

 31 35  0  0  0  0  0  0  0  0999 V2000
   13.1643  101.5358   59.1446 C   0  0  0  0  0  0  0  0  0  0  0  0
   12.9706  100.1065   58.7387 C   0  0  0  0  0  0  0  0  0  0  0  0
   12.5278   99.1538   59.6327 C   0  0  0  0  0  0  0  0  0  0  0  0
   12.3730   97.8576   59.1859 C   0  0  0  0  0  0  0  0  0  0  0  0
   12.6404   97.4744   57.8906 C   0  0  0  0  0  0  0  0  0  0  0  0
   13.0864   98.4753   57.0227 C   0  0  0  0  0  0  0  0  0  0  0  0
   13.4230   98.4281   55.7334 N   0  0  0  0  0  0  0  0  0  0  0  0
   13.7919   99.6396   55.3175 C   0  0  0  0  0  0  0  0  0  0  0  0
   14.2354  100.0664   54.0044 C   0  0  0  0  0  0  0  0  0  0  0  0
   13.8619   99.4413   52.8448 C   0  0  0  0  0  0  0  0  0  0  0  0
   13.0055   98.3299   52.7853 N   0  0  0  0  0  0  0  0  0  0  0  0
   13.0551   97.3478   51.7257 C   0  0  2  0  0  0  0  0  0  0  0  0
   11.7564   97.2481   50.9736 C   0  0  0  0  0  0  0  0  0  0  0  0
   11.8874   96.1789   49.9157 C   0  0  0  0  0  0  0  0  0  0  0  0
   13.3063   95.6993   49.8187 C   0  0  0  0  0  0  0  0  0  0  0  0
   13.7838   95.1706   51.0598 N   0  0  0  0  0  0  0  0  0  0  0  0
   13.4467   95.9860   52.2123 C   0  0  0  0  0  0  0  0  0  0  0  0
   14.3443   99.9332   51.6877 N   0  0  0  0  0  0  0  0  0  0  0  0
   15.1736  101.0075   51.6208 C   0  0  0  0  0  0  0  0  0  0  0  0
   15.6548  101.4916   50.3787 N   0  0  0  0  0  0  0  0  0  0  0  0
   15.0504  100.9746   49.1360 C   0  0  0  0  0  0  0  0  0  0  0  0
   16.1527  100.4936   48.2050 C   0  0  0  0  0  0  0  0  0  0  0  0
   17.2364  101.5199   48.0123 C   0  0  0  0  0  0  0  0  0  0  0  0
   17.8313  101.8295   49.3782 C   0  0  0  0  0  0  0  0  0  0  0  0
   18.9293  102.7508   49.3008 N   0  0  0  0  0  0  0  0  0  0  0  0
   16.6960  102.4584   50.1879 C   0  0  0  0  0  0  0  0  0  0  0  0
   15.5532  101.6358   52.7405 N   0  0  0  0  0  0  0  0  0  0  0  0
   15.0907  101.1715   53.9131 C   0  0  0  0  0  0  0  0  0  0  0  0
   15.4272  101.7378   54.9838 O   0  0  0  0  0  0  0  0  0  0  0  0
   13.6768  100.4410   56.3780 O   0  0  0  0  0  0  0  0  0  0  0  0
   13.2538   99.7679   57.4198 C   0  0  0  0  0  0  0  0  0  0  0  0
  1  2  1  0
  2  3  2  0
  3  4  1  0
  4  5  2  0
  5  6  1  0
  6  7  1  0
  7  8  2  0
  8  9  1  0
  9 10  2  0
 10 11  1  0
 12 11  1  1
 12 13  1  0
 13 14  1  0
 14 15  1  0
 15 16  1  0
 16 17  1  0
 10 18  1  0
 18 19  2  0
 19 20  1  0
 20 21  1  0
 21 22  1  0
 22 23  1  0
 23 24  1  0
 24 25  1  0
 24 26  1  0
 19 27  1  0
 27 28  1  0
 28 29  2  0
  8 30  1  0
 30 31  1  0
 31  2  1  0
 31  6  2  0
 28  9  1  0
 17 12  1  0
 26 20  1  0
M  END
$$$$
