
     RDKit          3D

 22 24  0  0  0  0  0  0  0  0999 V2000
   12.6940   54.5119   13.5404 C   0  0  0  0  0  0  0  0  0  0  0  0
   11.6654   55.2884   12.7655 C   0  0  0  0  0  0  0  0  0  0  0  0
   11.7988   56.6610   13.0478 O   0  0  0  0  0  0  0  0  0  0  0  0
   11.5543   57.3371   11.8508 C   0  0  0  0  0  0  0  0  0  0  0  0
   11.9364   58.7854   11.9806 C   0  0  0  0  0  0  0  0  0  0  0  0
   11.1851   59.8879   11.9697 N   0  0  0  0  0  0  0  0  0  0  0  0
   11.9752   60.9807   12.1280 C   0  0  0  0  0  0  0  0  0  0  0  0
   13.2465   60.5552   12.2397 N   0  0  0  0  0  0  0  0  0  0  0  0
   13.2543   59.2371   12.1548 C   0  0  0  0  0  0  0  0  0  0  0  0
   14.5026   58.4571   12.2300 C   0  0  0  0  0  0  0  0  0  0  0  0
   15.5615   59.1979   12.8204 N   0  0  0  0  0  0  0  0  0  0  0  0
   16.7473   58.5115   13.2026 C   0  0  0  0  0  0  0  0  0  0  0  0
   17.6447   59.1579   13.7961 O   0  0  0  0  0  0  0  0  0  0  0  0
   17.0045   57.1038   12.9596 C   0  0  0  0  0  0  0  0  0  0  0  0
   17.4553   56.6042   11.7598 C   0  0  0  0  0  0  0  0  0  0  0  0
   17.6883   55.2590   11.5624 C   0  0  0  0  0  0  0  0  0  0  0  0
   17.4717   54.3472   12.5874 C   0  0  0  0  0  0  0  0  0  0  0  0
   17.7215   52.9185   12.3434 C   0  0  0  0  0  0  0  0  0  0  0  0
   17.0303   54.8490   13.7580 N   0  0  0  0  0  0  0  0  0  0  0  0
   16.7983   56.1583   13.9668 C   0  0  0  0  0  0  0  0  0  0  0  0
   15.5432   60.6176   13.0814 C   0  0  0  0  0  0  0  0  0  0  0  0
   14.4422   61.3589   12.4227 C   0  0  0  0  0  0  0  0  0  0  0  0
  1  2  1  0
  2  3  1  0
  3  4  1  0
  4  5  1  0
  5  6  1  0
  6  7  2  0
  7  8  1  0
  8  9  1  0
  9 10  1  0
 10 11  1  0
 11 12  1  0
 12 13  2  0
 12 14  1  0
 14 15  2  0
 15 16  1  0
 16 17  2  0
 17 18  1  0
 17 19  1  0
 19 20  2  0
 11 21  1  0
 21 22  1  0
  9  5  2  0
 20 14  1  0
 22  8  1  0
M  END
$$$$
