
     RDKit          3D

 36 40  0  0  0  0  0  0  0  0999 V2000
   29.2038   83.6495   51.7236 C   0  0  0  0  0  0  0  0  0  0  0  0
   30.0247   82.3986   51.8849 C   0  0  0  0  0  0  0  0  0  0  0  0
   30.9961   82.1871   50.7403 C   0  0  0  0  0  0  0  0  0  0  0  0
   32.4058   82.2061   51.1850 C   0  0  0  0  0  0  0  0  0  0  0  0
   33.2561   83.2214   50.7920 C   0  0  0  0  0  0  0  0  0  0  0  0
   34.5729   83.2672   51.1908 C   0  0  0  0  0  0  0  0  0  0  0  0
   35.0683   82.2575   52.0184 C   0  0  0  0  0  0  0  0  0  0  0  0
   36.4063   82.2457   52.4635 N   0  0  0  0  0  0  0  0  0  0  0  0
   36.7813   82.4421   53.7391 C   0  0  0  0  0  0  0  0  0  0  0  0
   35.9613   82.7058   54.9388 C   0  0  0  0  0  0  0  0  0  0  0  0
   36.8275   82.4751   56.1678 C   0  0  0  0  0  0  0  0  0  0  0  0
   38.1333   82.3586   53.7831 N   0  0  0  0  0  0  0  0  0  0  0  0
   38.5913   82.1086   52.5221 C   0  0  0  0  0  0  0  0  0  0  0  0
   39.8650   81.9351   52.0204 C   0  0  0  0  0  0  0  0  0  0  0  0
   40.9495   81.9988   52.8058 F   0  0  0  0  0  0  0  0  0  0  0  0
   40.0300   81.6886   50.6688 C   0  0  0  0  0  0  0  0  0  0  0  0
   38.9231   81.6211   49.8499 C   0  0  0  0  0  0  0  0  0  0  0  0
   39.1296   81.3580   48.4107 C   0  0  0  0  0  0  0  0  0  0  0  0
   38.1064   81.1631   47.5758 N   0  0  0  0  0  0  0  0  0  0  0  0
   38.2111   80.9184   46.2589 C   0  0  0  0  0  0  0  0  0  0  0  0
   37.0999   80.7177   45.4099 N   0  0  0  0  0  0  0  0  0  0  0  0
   35.7661   80.7385   46.0274 C   0  0  2  0  0  0  0  0  0  0  0  0
   34.7847   80.5023   44.9277 C   0  0  0  0  0  0  0  0  0  0  0  0
   34.1837   81.8629   44.6835 C   0  0  0  0  0  0  0  0  0  0  0  0
   34.2701   82.5394   45.9639 N   0  0  0  0  0  0  0  0  0  0  0  0
   35.4699   82.0871   46.5820 C   0  0  0  0  0  0  0  0  0  0  0  0
   39.5090   80.8675   45.7393 C   0  0  0  0  0  0  0  0  0  0  0  0
   40.5751   81.0656   46.5841 C   0  0  0  0  0  0  0  0  0  0  0  0
   41.8644   81.0093   46.0382 O   0  0  0  0  0  0  0  0  0  0  0  0
   42.9702   81.1648   46.9407 C   0  0  0  0  0  0  0  0  0  0  0  0
   40.3738   81.3055   47.8936 N   0  0  0  0  0  0  0  0  0  0  0  0
   37.6638   81.7907   50.3351 C   0  0  0  0  0  0  0  0  0  0  0  0
   37.4882   82.0367   51.6804 C   0  0  0  0  0  0  0  0  0  0  0  0
   34.2388   81.2333   52.4240 C   0  0  0  0  0  0  0  0  0  0  0  0
   34.7379   80.2461   53.2379 F   0  0  0  0  0  0  0  0  0  0  0  0
   32.9258   81.2243   52.0022 C   0  0  0  0  0  0  0  0  0  0  0  0
  1  2  1  0
  2  3  1  0
  3  4  1  0
  4  5  2  0
  5  6  1  0
  6  7  2  0
  7  8  1  0
  8  9  1  0
  9 10  1  0
 10 11  1  0
  9 12  2  0
 12 13  1  0
 13 14  2  0
 14 15  1  0
 14 16  1  0
 16 17  2  0
 17 18  1  0
 18 19  2  0
 19 20  1  0
 20 21  1  0
 22 21  1  6
 22 23  1  0
 23 24  1  0
 24 25  1  0
 25 26  1  0
 20 27  2  0
 27 28  1  0
 28 29  1  0
 29 30  1  0
 28 31  2  0
 17 32  1  0
 32 33  2  0
  7 34  1  0
 34 35  1  0
 34 36  2  0
 36  4  1  0
 33  8  1  0
 33 13  1  0
 31 18  1  0
 26 22  1  0
M  END
$$$$
