
     RDKit          3D

 26 28  0  0  0  0  0  0  0  0999 V2000
   17.6559   53.6527   11.6010 C   0  0  0  0  0  0  0  0  0  0  0  0
   16.5423   54.4933   12.1912 C   0  0  2  0  0  0  0  0  0  0  0  0
   16.8949   55.9270   12.0206 C   0  0  0  0  0  0  0  0  0  0  0  0
   15.9022   56.8823   12.6283 C   0  0  0  0  0  0  0  0  0  0  0  0
   16.1408   58.2322   11.9321 C   0  0  0  0  0  0  0  0  0  0  0  0
   15.0655   59.2018   12.3243 C   0  0  0  0  0  0  0  0  0  0  0  0
   14.2545   58.7168   13.3461 O   0  0  0  0  0  0  0  0  0  0  0  0
   13.5927   57.5610   13.0035 C   0  0  0  0  0  0  0  0  0  0  0  0
   14.4832   56.5113   12.3746 C   0  0  0  0  0  0  0  0  0  0  0  0
   16.1119   57.1033   14.0253 N   0  0  0  0  0  0  0  0  0  0  0  0
   15.7528   56.0178   14.8771 C   0  0  0  0  0  0  0  0  0  0  0  0
   16.8335   54.9400   14.7234 C   0  0  0  0  0  0  0  0  0  0  0  0
   16.4388   54.1420   13.5871 N   0  0  0  0  0  0  0  0  0  0  0  0
   15.8925   52.8786   13.9135 C   0  0  0  0  0  0  0  0  0  0  0  0
   14.9058   52.4482   13.2708 O   0  0  0  0  0  0  0  0  0  0  0  0
   16.4021   52.0481   14.9462 N   0  0  0  0  0  0  0  0  0  0  0  0
   15.5838   51.2640   15.8021 C   0  0  0  0  0  0  0  0  0  0  0  0
   16.2108   50.2816   16.5385 C   0  0  0  0  0  0  0  0  0  0  0  0
   15.4921   49.5053   17.3673 N   0  0  0  0  0  0  0  0  0  0  0  0
   14.1848   49.6576   17.4993 C   0  0  0  0  0  0  0  0  0  0  0  0
   13.4455   48.7678   18.4322 C   0  0  0  0  0  0  0  0  0  0  0  0
   13.3772   49.3383   19.6874 F   0  0  0  0  0  0  0  0  0  0  0  0
   14.0086   47.5245   18.4531 F   0  0  0  0  0  0  0  0  0  0  0  0
   12.1338   48.6763   17.9619 F   0  0  0  0  0  0  0  0  0  0  0  0
   13.5543   50.6415   16.7624 C   0  0  0  0  0  0  0  0  0  0  0  0
   14.2752   51.4181   15.9328 N   0  0  0  0  0  0  0  0  0  0  0  0
  2  1  1  1
  2  3  1  0
  3  4  1  0
  4  5  1  0
  5  6  1  0
  6  7  1  0
  7  8  1  0
  8  9  1  0
  4 10  1  0
 10 11  1  0
 11 12  1  0
 12 13  1  0
 13 14  1  0
 14 15  2  0
 14 16  1  0
 16 17  1  0
 17 18  2  0
 18 19  1  0
 19 20  2  0
 20 21  1  0
 21 22  1  0
 21 23  1  0
 21 24  1  0
 20 25  1  0
 25 26  2  0
 13  2  1  0
 26 17  1  0
  9  4  1  0
M  END
$$$$
