
     RDKit          3D

 22 24  0  0  0  0  0  0  0  0999 V2000
   16.1611   93.9247   62.8717 C   0  0  0  0  0  0  0  0  0  0  0  0
   14.9901   94.2612   62.1535 O   0  0  0  0  0  0  0  0  0  0  0  0
   13.7700   94.0451   62.7781 C   0  0  0  0  0  0  0  0  0  0  0  0
   13.5201   92.8787   63.5151 C   0  0  0  0  0  0  0  0  0  0  0  0
   12.2874   92.7101   64.1190 C   0  0  0  0  0  0  0  0  0  0  0  0
   11.3119   93.6805   63.9980 C   0  0  0  0  0  0  0  0  0  0  0  0
   11.5759   94.8301   63.2644 C   0  0  0  0  0  0  0  0  0  0  0  0
   12.8048   95.0202   62.6503 C   0  0  0  0  0  0  0  0  0  0  0  0
   13.1113   96.1804   61.8932 N   0  0  0  0  0  0  0  0  0  0  0  0
   12.1061   96.9161   61.1883 C   0  0  0  0  0  0  0  0  0  0  0  0
   10.9740   96.9938   61.6838 O   0  0  0  0  0  0  0  0  0  0  0  0
   12.4031   97.5359   59.9590 N   0  0  0  0  0  0  0  0  0  0  0  0
   11.8390   98.7257   59.4413 C   0  0  0  0  0  0  0  0  0  0  0  0
   10.9795   99.5162   60.1508 C   0  0  0  0  0  0  0  0  0  0  0  0
   10.4795  100.6620   59.5583 C   0  0  0  0  0  0  0  0  0  0  0  0
   10.7904  101.0653   58.2916 C   0  0  0  0  0  0  0  0  0  0  0  0
   11.6614  100.2565   57.5839 C   0  0  0  0  0  0  0  0  0  0  0  0
   12.1676   99.1278   58.1378 C   0  0  0  0  0  0  0  0  0  0  0  0
   13.0349   98.3616   57.3758 O   0  0  0  0  0  0  0  0  0  0  0  0
   13.3571   98.5900   56.0454 C   0  0  0  0  0  0  0  0  0  0  0  0
   12.6764   99.7392   55.4022 C   0  0  0  0  0  0  0  0  0  0  0  0
   12.0184  100.5995   56.3052 O   0  0  0  0  0  0  0  0  0  0  0  0
  1  2  1  0
  2  3  1  0
  3  4  2  0
  4  5  1  0
  5  6  2  0
  6  7  1  0
  7  8  2  0
  8  9  1  0
  9 10  1  0
 10 11  2  0
 10 12  1  0
 12 13  1  0
 13 14  2  0
 14 15  1  0
 15 16  2  0
 16 17  1  0
 17 18  2  0
 18 19  1  0
 19 20  1  0
 20 21  1  0
 21 22  1  0
  8  3  1  0
 18 13  1  0
 22 17  1  0
M  END
$$$$
