
     RDKit          3D

 22 24  0  0  0  0  0  0  0  0999 V2000
   -3.5550   69.2842   31.7362 C   0  0  0  0  0  0  0  0  0  0  0  0
   -2.5532   68.2106   32.0741 C   0  0  0  0  0  0  0  0  0  0  0  0
   -1.3197   68.3663   32.5264 N   0  0  0  0  0  0  0  0  0  0  0  0
   -0.8005   67.1558   32.6857 C   0  0  0  0  0  0  0  0  0  0  0  0
   -1.7041   66.1908   32.3340 N   0  0  0  0  0  0  0  0  0  0  0  0
   -2.8109   66.8328   31.9468 C   0  0  0  0  0  0  0  0  0  0  0  0
   -4.0797   66.2951   31.4589 C   0  0  0  0  0  0  0  0  0  0  0  0
   -4.8203   66.9047   30.4773 N   0  0  0  0  0  0  0  0  0  0  0  0
   -5.9266   66.2279   30.2189 C   0  0  0  0  0  0  0  0  0  0  0  0
   -5.9166   65.1451   31.0488 C   0  0  0  0  0  0  0  0  0  0  0  0
   -4.7592   65.2250   31.7957 N   0  0  0  0  0  0  0  0  0  0  0  0
   -4.4698   64.1749   32.7273 C   0  0  0  0  0  0  0  0  0  0  0  0
   -3.8025   63.0143   32.0602 C   0  0  0  0  0  0  0  0  0  0  0  0
   -3.2200   61.9784   32.7451 C   0  0  0  0  0  0  0  0  0  0  0  0
   -2.6044   60.9072   32.0782 C   0  0  0  0  0  0  0  0  0  0  0  0
   -2.5645   60.8607   30.7035 C   0  0  0  0  0  0  0  0  0  0  0  0
   -1.9262   59.7510   29.9556 C   0  0  0  0  0  0  0  0  0  0  0  0
   -3.0123   58.8501   29.4120 C   0  0  0  0  0  0  0  0  0  0  0  0
   -1.0790   60.2319   28.8147 C   0  0  0  0  0  0  0  0  0  0  0  0
   -1.0493   58.8992   30.8561 C   0  0  0  0  0  0  0  0  0  0  0  0
   -3.1493   61.9008   30.0280 C   0  0  0  0  0  0  0  0  0  0  0  0
   -3.7583   62.9609   30.6586 C   0  0  0  0  0  0  0  0  0  0  0  0
  1  2  1  0
  2  3  1  0
  3  4  2  0
  4  5  1  0
  5  6  1  0
  6  7  1  0
  7  8  2  0
  8  9  1  0
  9 10  2  0
 10 11  1  0
 11 12  1  0
 12 13  1  0
 13 14  2  0
 14 15  1  0
 15 16  2  0
 16 17  1  0
 17 18  1  0
 17 19  1  0
 17 20  1  0
 16 21  1  0
 21 22  2  0
  6  2  2  0
 11  7  1  0
 22 13  1  0
M  END
$$$$
