
     RDKit          3D

 27 31  0  0  0  0  0  0  0  0999 V2000
   10.1923   99.1102   59.8749 C   0  0  0  0  0  0  0  0  0  0  0  0
   11.6067   98.7073   59.5837 C   0  0  0  0  0  0  0  0  0  0  0  0
   11.7762   97.2490   59.9571 C   0  0  0  0  0  0  0  0  0  0  0  0
   12.7991   97.0681   60.9734 N   0  0  0  0  0  0  0  0  0  0  0  0
   13.6996   96.0689   60.9769 C   0  0  0  0  0  0  0  0  0  0  0  0
   14.5215   96.2008   62.0877 C   0  0  0  0  0  0  0  0  0  0  0  0
   14.0610   97.3351   62.7473 C   0  0  0  0  0  0  0  0  0  0  0  0
   13.0286   97.8097   62.0314 N   0  0  0  0  0  0  0  0  0  0  0  0
   11.9508   98.9232   58.1757 N   0  0  0  0  0  0  0  0  0  0  0  0
   11.1946   98.4605   57.1933 N   0  0  0  0  0  0  0  0  0  0  0  0
   11.4811   98.6405   55.9103 N   0  0  0  0  0  0  0  0  0  0  0  0
   12.5750   99.3149   55.5060 C   0  0  0  0  0  0  0  0  0  0  0  0
   12.8702   99.5005   54.1546 C   0  0  0  0  0  0  0  0  0  0  0  0
   14.0076  100.2016   53.8045 C   0  0  0  0  0  0  0  0  0  0  0  0
   14.3637  100.4245   52.4885 C   0  0  0  0  0  0  0  0  0  0  0  0
   13.6267   99.9735   51.5742 O   0  0  0  0  0  0  0  0  0  0  0  0
   15.4735  101.1086   52.1470 N   0  0  0  0  0  0  0  0  0  0  0  0
   15.8303  101.3323   50.7433 C   0  0  0  0  0  0  0  0  0  0  0  0
   16.3329  100.2228   49.9193 C   0  0  0  0  0  0  0  0  0  0  0  0
   17.2841  101.3022   50.4443 C   0  0  0  0  0  0  0  0  0  0  0  0
   16.2266  101.5694   53.1315 N   0  0  0  0  0  0  0  0  0  0  0  0
   15.9426  101.3910   54.4121 N   0  0  0  0  0  0  0  0  0  0  0  0
   14.8427  100.7129   54.7775 C   0  0  0  0  0  0  0  0  0  0  0  0
   14.5153  100.5075   56.1152 C   0  0  0  0  0  0  0  0  0  0  0  0
   13.3925   99.8153   56.4996 C   0  0  0  0  0  0  0  0  0  0  0  0
   13.0568   99.6050   57.8239 C   0  0  0  0  0  0  0  0  0  0  0  0
   13.8177  100.0708   58.7218 O   0  0  0  0  0  0  0  0  0  0  0  0
  1  2  1  0
  2  3  1  0
  3  4  1  0
  4  5  1  0
  5  6  2  0
  6  7  1  0
  7  8  2  0
  2  9  1  0
  9 10  1  0
 10 11  2  0
 11 12  1  0
 12 13  2  0
 13 14  1  0
 14 15  1  0
 15 16  2  0
 15 17  1  0
 17 18  1  0
 18 19  1  0
 19 20  1  0
 17 21  1  0
 21 22  2  0
 22 23  1  0
 23 24  1  0
 24 25  2  0
 25 26  1  0
 26 27  2  0
  8  4  1  0
 26  9  1  0
 25 12  1  0
 23 14  2  0
 20 18  1  0
M  END
$$$$
