
     RDKit          3D

 19 21  0  0  0  0  0  0  0  0999 V2000
   16.2302   58.5665   14.1447 C   0  0  0  0  0  0  0  0  0  0  0  0
   15.0607   58.5536   13.2815 N   0  0  0  0  0  0  0  0  0  0  0  0
   14.6678   57.4742   12.5859 C   0  0  0  0  0  0  0  0  0  0  0  0
   15.4220   56.2334   12.6731 C   0  0  0  0  0  0  0  0  0  0  0  0
   16.3882   55.8824   11.7675 C   0  0  0  0  0  0  0  0  0  0  0  0
   17.0513   54.6855   11.9255 C   0  0  0  0  0  0  0  0  0  0  0  0
   16.7702   53.8330   12.9675 C   0  0  0  0  0  0  0  0  0  0  0  0
   17.4239   52.6718   13.1081 N   0  0  0  0  0  0  0  0  0  0  0  0
   17.1411   51.8378   14.1372 C   0  0  0  0  0  0  0  0  0  0  0  0
   16.1792   52.1443   15.0740 C   0  0  0  0  0  0  0  0  0  0  0  0
   15.4967   53.3178   14.9591 C   0  0  0  0  0  0  0  0  0  0  0  0
   15.8078   54.1609   13.8876 C   0  0  0  0  0  0  0  0  0  0  0  0
   15.1608   55.3633   13.7052 C   0  0  0  0  0  0  0  0  0  0  0  0
   13.5482   57.5495   11.7872 C   0  0  0  0  0  0  0  0  0  0  0  0
   12.8211   58.7158   11.6882 C   0  0  0  0  0  0  0  0  0  0  0  0
   11.6589   58.7562   10.8448 N   0  0  0  0  0  0  0  0  0  0  0  0
   13.2248   59.7740   12.3839 N   0  0  0  0  0  0  0  0  0  0  0  0
   14.3189   59.6745   13.1547 C   0  0  0  0  0  0  0  0  0  0  0  0
   14.6959   60.7003   13.8186 O   0  0  0  0  0  0  0  0  0  0  0  0
  1  2  1  0
  2  3  1  0
  3  4  1  0
  4  5  2  0
  5  6  1  0
  6  7  2  0
  7  8  1  0
  8  9  2  0
  9 10  1  0
 10 11  2  0
 11 12  1  0
 12 13  2  0
  3 14  2  0
 14 15  1  0
 15 16  1  0
 15 17  2  0
 17 18  1  0
 18 19  2  0
 18  2  1  0
 13  4  1  0
 12  7  1  0
M  END
$$$$
