
     RDKit          3D

 30 34  0  0  0  0  0  0  0  0999 V2000
   34.5431   81.3200   52.5972 O   0  0  0  0  0  0  0  0  0  0  0  0
   34.4886   82.0973   51.6391 C   0  0  0  0  0  0  0  0  0  0  0  0
   35.5478   82.9253   51.2453 N   0  0  0  0  0  0  0  0  0  0  0  0
   36.7749   82.9675   51.9484 C   0  0  0  0  0  0  0  0  0  0  0  0
   37.0207   83.5813   53.1307 C   0  0  0  0  0  0  0  0  0  0  0  0
   38.2803   83.5449   53.7164 C   0  0  0  0  0  0  0  0  0  0  0  0
   39.3622   82.9009   53.1656 C   0  0  0  0  0  0  0  0  0  0  0  0
   40.6862   82.8476   53.7800 C   0  0  0  0  0  0  0  0  0  0  0  0
   41.6741   82.3170   53.0735 C   0  0  0  0  0  0  0  0  0  0  0  0
   43.0202   82.2891   53.7581 C   0  0  0  0  0  0  0  0  0  0  0  0
   42.9270   81.8134   55.1064 N   0  0  0  0  0  0  0  0  0  0  0  0
   43.8676   80.8903   55.5998 C   0  0  0  0  0  0  0  0  0  0  0  0
   44.4586   80.1169   54.8045 O   0  0  0  0  0  0  0  0  0  0  0  0
   44.2299   80.7524   57.0352 C   0  0  0  0  0  0  0  0  0  0  0  0
   45.7131   80.8672   57.2211 C   0  0  0  0  0  0  0  0  0  0  0  0
   45.6815   79.5784   58.0420 C   0  0  0  0  0  0  0  0  0  0  0  0
   44.3088   79.3207   57.5076 C   0  0  0  0  0  0  0  0  0  0  0  0
   41.8375   82.3222   55.9118 C   0  0  0  0  0  0  0  0  0  0  0  0
   40.9958   83.3339   55.1292 C   0  0  0  0  0  0  0  0  0  0  0  0
   39.1147   82.2676   51.9494 C   0  0  0  0  0  0  0  0  0  0  0  0
   37.8728   82.3051   51.3746 C   0  0  0  0  0  0  0  0  0  0  0  0
   33.2760   82.1694   50.8726 N   0  0  0  0  0  0  0  0  0  0  0  0
   33.2077   82.7888   49.5663 C   0  0  0  0  0  0  0  0  0  0  0  0
   31.9578   82.2286   48.9794 C   0  0  0  0  0  0  0  0  0  0  0  0
   31.5191   82.3096   47.6847 C   0  0  0  0  0  0  0  0  0  0  0  0
   30.3053   81.7004   47.3709 C   0  0  0  0  0  0  0  0  0  0  0  0
   29.5755   81.0410   48.3326 C   0  0  0  0  0  0  0  0  0  0  0  0
   30.0435   80.9791   49.6181 C   0  0  0  0  0  0  0  0  0  0  0  0
   31.2342   81.5696   49.9534 C   0  0  0  0  0  0  0  0  0  0  0  0
   31.9812   81.6624   51.2533 C   0  0  0  0  0  0  0  0  0  0  0  0
  1  2  2  0
  2  3  1  0
  3  4  1  0
  4  5  2  0
  5  6  1  0
  6  7  2  0
  7  8  1  0
  8  9  2  0
  9 10  1  0
 10 11  1  0
 11 12  1  0
 12 13  2  0
 12 14  1  0
 14 15  1  0
 15 16  1  0
 16 17  1  0
 11 18  1  0
 18 19  1  0
  7 20  1  0
 20 21  2  0
  2 22  1  0
 22 23  1  0
 23 24  1  0
 24 25  2  0
 25 26  1  0
 26 27  2  0
 27 28  1  0
 28 29  2  0
 29 30  1  0
 21  4  1  0
 30 22  1  0
 19  8  1  0
 29 24  1  0
 17 14  1  0
M  END
$$$$
