
     RDKit          3D

 23 25  0  0  0  0  0  0  0  0999 V2000
   12.9026   56.3032   10.7799 C   0  0  0  0  0  0  0  0  0  0  0  0
   13.5003   57.3338   11.6642 C   0  0  0  0  0  0  0  0  0  0  0  0
   13.1631   58.6350   11.7863 N   0  0  0  0  0  0  0  0  0  0  0  0
   13.9539   59.1891   12.6900 N   0  0  0  0  0  0  0  0  0  0  0  0
   14.8086   58.2723   13.1667 C   0  0  0  0  0  0  0  0  0  0  0  0
   14.5045   57.1227   12.5101 N   0  0  0  0  0  0  0  0  0  0  0  0
   15.1838   55.8962   12.7245 C   0  0  0  0  0  0  0  0  0  0  0  0
   15.3627   55.4778   14.0182 C   0  0  0  0  0  0  0  0  0  0  0  0
   16.0266   54.2787   14.2330 C   0  0  0  0  0  0  0  0  0  0  0  0
   16.5020   53.5117   13.1934 C   0  0  0  0  0  0  0  0  0  0  0  0
   17.3409   51.9908   13.5993 S   0  0  0  0  0  0  0  0  0  0  0  0
   17.6234   51.9982   15.3889 C   0  0  0  0  0  0  0  0  0  0  0  0
   16.4239   51.5879   16.1494 C   0  0  0  0  0  0  0  0  0  0  0  0
   15.3470   52.2392   16.5747 N   0  0  0  0  0  0  0  0  0  0  0  0
   14.5727   51.3850   17.2130 O   0  0  0  0  0  0  0  0  0  0  0  0
   15.0908   50.1954   17.2286 C   0  0  0  0  0  0  0  0  0  0  0  0
   14.5903   48.9294   17.8204 C   0  0  0  0  0  0  0  0  0  0  0  0
   14.4906   48.9534   19.3104 C   0  0  0  0  0  0  0  0  0  0  0  0
   13.2390   48.6146   17.1701 C   0  0  0  0  0  0  0  0  0  0  0  0
   15.5274   47.8059   17.4124 C   0  0  0  0  0  0  0  0  0  0  0  0
   16.2537   50.2982   16.5669 N   0  0  0  0  0  0  0  0  0  0  0  0
   16.3121   53.9498   11.8990 C   0  0  0  0  0  0  0  0  0  0  0  0
   15.6442   55.1573   11.6676 C   0  0  0  0  0  0  0  0  0  0  0  0
  1  2  1  0
  2  3  2  0
  3  4  1  0
  4  5  2  0
  5  6  1  0
  6  7  1  0
  7  8  2  0
  8  9  1  0
  9 10  2  0
 10 11  1  0
 11 12  1  0
 12 13  1  0
 13 14  2  0
 14 15  1  0
 15 16  1  0
 16 17  1  0
 17 18  1  0
 17 19  1  0
 17 20  1  0
 16 21  2  0
 10 22  1  0
 22 23  2  0
  6  2  1  0
 23  7  1  0
 21 13  1  0
M  END
$$$$
