
     RDKit          3D

 33 37  0  0  0  0  0  0  0  0999 V2000
   17.4615   46.3561   20.5388 C   0  0  0  0  0  0  0  0  0  0  0  0
   16.3891   45.8529   19.8198 O   0  0  0  0  0  0  0  0  0  0  0  0
   15.8862   46.8904   19.0443 C   0  0  1  0  0  0  0  0  0  0  0  0
   15.9042   48.2130   19.8023 C   0  0  0  0  0  0  0  0  0  0  0  0
   16.3195   49.2669   18.7732 C   0  0  0  0  0  0  0  0  0  0  0  0
   16.5251   48.5136   17.5642 N   0  0  0  0  0  0  0  0  0  0  0  0
   16.3700   48.9855   16.2524 C   0  0  0  0  0  0  0  0  0  0  0  0
   16.4208   48.2138   15.2524 O   0  0  0  0  0  0  0  0  0  0  0  0
   16.1439   50.3975   16.0115 C   0  0  0  0  0  0  0  0  0  0  0  0
   14.9742   51.0006   16.4112 C   0  0  0  0  0  0  0  0  0  0  0  0
   14.7679   52.3600   16.1765 C   0  0  0  0  0  0  0  0  0  0  0  0
   15.6941   53.1600   15.5492 C   0  0  0  0  0  0  0  0  0  0  0  0
   15.5098   54.5334   15.2951 N   0  0  0  0  0  0  0  0  0  0  0  0
   14.1696   55.0832   15.2940 C   0  0  0  0  0  0  0  0  0  0  0  0
   14.1335   56.2987   14.3670 C   0  0  0  0  0  0  0  0  0  0  0  0
   15.0232   56.0379   13.2923 N   0  0  0  0  0  0  0  0  0  0  0  0
   14.7008   56.5726   12.0226 C   0  0  0  0  0  0  0  0  0  0  0  0
   13.9625   57.8379   12.0053 C   0  0  0  0  0  0  0  0  0  0  0  0
   12.8596   57.9896   11.1972 C   0  0  0  0  0  0  0  0  0  0  0  0
   12.1568   59.1586   11.1617 N   0  0  0  0  0  0  0  0  0  0  0  0
   12.4923   60.2243   11.9045 C   0  0  0  0  0  0  0  0  0  0  0  0
   11.7574   61.4112   11.8491 C   0  0  0  0  0  0  0  0  0  0  0  0
   12.1023   62.5042   12.6099 C   0  0  0  0  0  0  0  0  0  0  0  0
   13.2049   62.3938   13.4364 C   0  0  0  0  0  0  0  0  0  0  0  0
   13.9297   61.2152   13.4876 C   0  0  0  0  0  0  0  0  0  0  0  0
   13.5928   60.1142   12.7295 C   0  0  0  0  0  0  0  0  0  0  0  0
   14.3220   58.9223   12.7756 C   0  0  0  0  0  0  0  0  0  0  0  0
   16.4072   55.9342   13.6146 C   0  0  0  0  0  0  0  0  0  0  0  0
   16.5979   55.4317   15.0395 C   0  0  0  0  0  0  0  0  0  0  0  0
   16.8723   52.5131   15.1561 C   0  0  0  0  0  0  0  0  0  0  0  0
   17.0819   51.1767   15.3836 C   0  0  0  0  0  0  0  0  0  0  0  0
   18.2363   50.6125   14.9806 F   0  0  0  0  0  0  0  0  0  0  0  0
   16.9230   47.1880   17.9522 C   0  0  0  0  0  0  0  0  0  0  0  0
  1  2  1  0
  3  2  1  1
  3  4  1  0
  4  5  1  0
  5  6  1  0
  6  7  1  0
  7  8  2  0
  7  9  1  0
  9 10  2  0
 10 11  1  0
 11 12  2  0
 12 13  1  0
 13 14  1  0
 14 15  1  0
 15 16  1  0
 16 17  1  0
 17 18  1  0
 18 19  2  0
 19 20  1  0
 20 21  2  0
 21 22  1  0
 22 23  2  0
 23 24  1  0
 24 25  2  0
 25 26  1  0
 26 27  2  0
 16 28  1  0
 28 29  1  0
 12 30  1  0
 30 31  2  0
 31 32  1  0
  6 33  1  0
 33  3  1  0
 31  9  1  0
 29 13  1  0
 27 18  1  0
 26 21  1  0
M  END
$$$$
