
     RDKit          3D

 30 33  0  0  0  0  0  0  0  0999 V2000
   10.2847   91.9573   64.8747 C   0  0  0  0  0  0  0  0  0  0  0  0
   11.7710   91.7197   64.8368 C   0  0  0  0  0  0  0  0  0  0  0  0
   12.3859   91.9032   66.2134 C   0  0  0  0  0  0  0  0  0  0  0  0
   12.0304   90.2967   64.4103 C   0  0  0  0  0  0  0  0  0  0  0  0
   12.3788   92.7100   63.9045 C   0  0  0  0  0  0  0  0  0  0  0  0
   11.7092   93.4785   62.9603 C   0  0  0  0  0  0  0  0  0  0  0  0
   12.6609   94.2297   62.3483 C   0  0  0  0  0  0  0  0  0  0  0  0
   12.5163   95.2140   61.2769 C   0  0  0  0  0  0  0  0  0  0  0  0
   11.4065   95.7189   61.0066 O   0  0  0  0  0  0  0  0  0  0  0  0
   13.6407   95.6362   60.4973 N   0  0  0  0  0  0  0  0  0  0  0  0
   13.5353   96.6021   59.4581 C   0  0  0  0  0  0  0  0  0  0  0  0
   14.5286   97.5451   59.2624 C   0  0  0  0  0  0  0  0  0  0  0  0
   14.4319   98.4929   58.2481 C   0  0  0  0  0  0  0  0  0  0  0  0
   13.3358   98.5166   57.4061 C   0  0  0  0  0  0  0  0  0  0  0  0
   13.1662   99.4835   56.3185 C   0  0  0  0  0  0  0  0  0  0  0  0
   12.3479   98.8326   55.2348 C   0  0  0  0  0  0  0  0  0  0  0  0
   12.3606   99.5895   53.9402 C   0  0  0  0  0  0  0  0  0  0  0  0
   12.9697  100.8647   53.9843 N   0  0  0  0  0  0  0  0  0  0  0  0
   13.1911  101.3270   52.6263 C   0  0  0  0  0  0  0  0  0  0  0  0
   14.0855  102.5162   52.5381 C   0  0  0  0  0  0  0  0  0  0  0  0
   15.5082  102.0445   52.7997 C   0  0  0  0  0  0  0  0  0  0  0  0
   15.9654  101.3379   51.6888 O   0  0  0  0  0  0  0  0  0  0  0  0
   14.9611  100.7532   50.9557 C   0  0  0  0  0  0  0  0  0  0  0  0
   13.8337  100.2062   51.8056 C   0  0  0  0  0  0  0  0  0  0  0  0
   14.1911  100.9759   54.6965 C   0  0  0  0  0  0  0  0  0  0  0  0
   14.4735   99.9084   55.6934 C   0  0  0  0  0  0  0  0  0  0  0  0
   12.3510   97.5727   57.6091 C   0  0  0  0  0  0  0  0  0  0  0  0
   12.4513   96.6503   58.6008 C   0  0  0  0  0  0  0  0  0  0  0  0
   13.8302   93.9000   62.9241 N   0  0  0  0  0  0  0  0  0  0  0  0
   13.6575   92.9999   63.8449 O   0  0  0  0  0  0  0  0  0  0  0  0
  1  2  1  0
  2  3  1  0
  2  4  1  0
  2  5  1  0
  5  6  2  0
  6  7  1  0
  7  8  1  0
  8  9  2  0
  8 10  1  0
 10 11  1  0
 11 12  2  0
 12 13  1  0
 13 14  2  0
 14 15  1  0
 15 16  1  0
 16 17  1  0
 17 18  1  0
 18 19  1  0
 19 20  1  0
 20 21  1  0
 21 22  1  0
 22 23  1  0
 23 24  1  0
 18 25  1  0
 25 26  1  0
 14 27  1  0
 27 28  2  0
  7 29  2  0
 29 30  1  0
 30  5  1  0
 28 11  1  0
 26 15  1  0
 24 19  1  0
M  END
$$$$
