
     RDKit          3D

 35 39  0  0  0  0  0  0  0  0999 V2000
   41.7178   84.1602   55.5458 C   0  0  0  0  0  0  0  0  0  0  0  0
   40.3154   84.2566   55.0219 C   0  0  0  0  0  0  0  0  0  0  0  0
   39.9419   83.2327   54.1030 N   0  0  0  0  0  0  0  0  0  0  0  0
   39.0422   82.3013   54.6982 C   0  0  0  0  0  0  0  0  0  0  0  0
   38.7240   81.1101   53.8213 C   0  0  0  0  0  0  0  0  0  0  0  0
   39.3619   81.2844   52.5331 N   0  0  0  0  0  0  0  0  0  0  0  0
   38.6714   81.2200   51.2898 C   0  0  0  0  0  0  0  0  0  0  0  0
   37.3187   81.4496   51.0609 C   0  0  0  0  0  0  0  0  0  0  0  0
   36.3975   81.8291   52.1208 C   0  0  0  0  0  0  0  0  0  0  0  0
   37.0628   81.2810   49.7214 C   0  0  0  0  0  0  0  0  0  0  0  0
   35.9098   81.3723   48.8931 C   0  0  0  0  0  0  0  0  0  0  0  0
   34.7139   81.7530   49.5079 N   0  0  0  0  0  0  0  0  0  0  0  0
   33.4441   81.7426   48.9295 C   0  0  0  0  0  0  0  0  0  0  0  0
   33.1965   81.5425   47.5965 C   0  0  0  0  0  0  0  0  0  0  0  0
   31.8857   81.4386   47.1216 C   0  0  0  0  0  0  0  0  0  0  0  0
   30.8042   81.5356   47.9596 C   0  0  0  0  0  0  0  0  0  0  0  0
   29.5117   81.4369   47.5301 F   0  0  0  0  0  0  0  0  0  0  0  0
   31.0920   81.7427   49.3030 C   0  0  0  0  0  0  0  0  0  0  0  0
   32.3458   81.8502   49.8271 C   0  0  0  0  0  0  0  0  0  0  0  0
   32.6429   82.0537   51.1399 O   0  0  0  0  0  0  0  0  0  0  0  0
   31.8200   82.7145   52.0245 C   0  0  1  0  0  0  0  0  0  0  0  0
   31.5039   81.9122   53.2735 C   0  0  0  0  0  0  0  0  0  0  0  0
   31.2288   82.7990   54.2817 O   0  0  0  0  0  0  0  0  0  0  0  0
   31.7839   84.0245   53.9695 C   0  0  0  0  0  0  0  0  0  0  0  0
   32.5554   83.8940   52.7019 C   0  0  2  0  0  0  0  0  0  0  0  0
   32.4328   85.0255   51.8854 O   0  0  0  0  0  0  0  0  0  0  0  0
   36.0469   81.1309   47.5442 C   0  0  0  0  0  0  0  0  0  0  0  0
   37.2703   80.8119   47.0199 C   0  0  0  0  0  0  0  0  0  0  0  0
   37.3781   80.5676   45.5721 C   0  0  0  0  0  0  0  0  0  0  0  0
   38.3460   80.7286   47.8165 N   0  0  0  0  0  0  0  0  0  0  0  0
   38.2648   80.9523   49.1385 C   0  0  0  0  0  0  0  0  0  0  0  0
   39.2122   80.9226   50.1073 N   0  0  0  0  0  0  0  0  0  0  0  0
   40.6146   80.5952   49.8259 C   0  0  0  0  0  0  0  0  0  0  0  0
   40.8010   81.5178   52.5771 C   0  0  0  0  0  0  0  0  0  0  0  0
   41.1047   82.6664   53.4917 C   0  0  0  0  0  0  0  0  0  0  0  0
  1  2  1  0
  2  3  1  0
  3  4  1  0
  4  5  1  0
  5  6  1  0
  6  7  1  0
  7  8  2  0
  8  9  1  0
  8 10  1  0
 10 11  2  0
 11 12  1  0
 12 13  1  0
 13 14  2  0
 14 15  1  0
 15 16  2  0
 16 17  1  0
 16 18  1  0
 18 19  2  0
 19 20  1  0
 21 20  1  6
 21 22  1  0
 22 23  1  0
 23 24  1  0
 24 25  1  0
 25 26  1  6
 11 27  1  0
 27 28  2  0
 28 29  1  0
 28 30  1  0
 30 31  2  0
 31 32  1  0
 32 33  1  0
  6 34  1  0
 34 35  1  0
 35  3  1  0
 32  7  1  0
 31 10  1  0
 19 13  1  0
 25 21  1  0
M  END
$$$$
