
     RDKit          3D

 23 24  0  0  0  0  0  0  0  0999 V2000
   10.2978  100.3127   58.1097 C   0  0  0  0  0  0  0  0  0  0  0  0
   11.8002  100.0746   58.0979 C   0  0  0  0  0  0  0  0  0  0  0  0
   12.0939   98.6466   57.9159 N   0  0  0  0  0  0  0  0  0  0  0  0
   12.3329   98.2034   56.5907 C   0  0  0  0  0  0  0  0  0  0  0  0
   13.2103   99.0194   55.7515 C   0  0  0  0  0  0  0  0  0  0  0  0
   14.3206   99.6838   56.2154 C   0  0  0  0  0  0  0  0  0  0  0  0
   15.0865  100.4303   55.3598 C   0  0  0  0  0  0  0  0  0  0  0  0
   14.7341  100.5087   54.0294 C   0  0  0  0  0  0  0  0  0  0  0  0
   13.6485   99.8573   53.5796 N   0  0  0  0  0  0  0  0  0  0  0  0
   12.8842   99.1196   54.4051 C   0  0  0  0  0  0  0  0  0  0  0  0
   12.0961   97.8341   59.0790 C   0  0  0  0  0  0  0  0  0  0  0  0
   13.1093   97.0687   59.2415 O   0  0  0  0  0  0  0  0  0  0  0  0
   11.0523   97.7926   60.1043 C   0  0  0  0  0  0  0  0  0  0  0  0
   11.6877   97.8649   61.4783 C   0  0  0  0  0  0  0  0  0  0  0  0
   10.8598   98.8468   62.3196 C   0  0  0  0  0  0  0  0  0  0  0  0
   11.8121   96.5986   62.1317 N   0  0  0  0  0  0  0  0  0  0  0  0
   13.0593   95.9718   62.2555 C   0  0  0  0  0  0  0  0  0  0  0  0
   14.0902   96.4533   61.7506 O   0  0  0  0  0  0  0  0  0  0  0  0
   13.1580   94.7018   63.0061 C   0  0  0  0  0  0  0  0  0  0  0  0
   12.1665   94.1060   63.7425 C   0  0  0  0  0  0  0  0  0  0  0  0
   12.6893   92.9482   64.2669 C   0  0  0  0  0  0  0  0  0  0  0  0
   13.9926   92.8724   63.8313 C   0  0  0  0  0  0  0  0  0  0  0  0
   14.2058   93.9346   63.0940 O   0  0  0  0  0  0  0  0  0  0  0  0
  1  2  1  0
  2  3  1  0
  3  4  1  0
  4  5  1  0
  5  6  2  0
  6  7  1  0
  7  8  2  0
  8  9  1  0
  9 10  2  0
  3 11  1  0
 11 12  2  0
 11 13  1  0
 13 14  1  0
 14 15  1  0
 14 16  1  0
 16 17  1  0
 17 18  2  0
 17 19  1  0
 19 20  2  0
 20 21  1  0
 21 22  2  0
 22 23  1  0
 10  5  1  0
 23 19  1  0
M  END
$$$$
