
     RDKit          3D

 32 36  0  0  0  0  0  0  0  0999 V2000
    9.2145  100.9698   58.1129 N   0  0  0  0  0  0  0  0  0  0  0  0
   10.3227  100.3727   57.8360 C   0  0  0  0  0  0  0  0  0  0  0  0
   11.5038   99.7149   57.5545 C   0  0  0  0  0  0  0  0  0  0  0  0
   12.5190  100.3089   56.8238 C   0  0  0  0  0  0  0  0  0  0  0  0
   13.6677   99.6890   56.4542 C   0  0  0  0  0  0  0  0  0  0  0  0
   14.7563  100.1955   55.6681 C   0  0  0  0  0  0  0  0  0  0  0  0
   15.8629  100.8060   56.3461 C   0  0  0  0  0  0  0  0  0  0  0  0
   16.8105  101.3408   55.5906 C   0  0  0  0  0  0  0  0  0  0  0  0
   16.8700  101.3870   54.2607 N   0  0  0  0  0  0  0  0  0  0  0  0
   15.7811  100.7832   53.6168 C   0  0  0  0  0  0  0  0  0  0  0  0
   15.5463  100.6688   52.3402 N   0  0  0  0  0  0  0  0  0  0  0  0
   14.3992  100.0285   52.0601 C   0  0  0  0  0  0  0  0  0  0  0  0
   13.8508   99.7563   50.7989 N   0  0  0  0  0  0  0  0  0  0  0  0
   12.7921   98.8545   50.5687 C   0  0  0  0  0  0  0  0  0  0  0  0
   13.0364   97.8961   49.4236 C   0  0  0  0  0  0  0  0  0  0  0  0
   13.6898   98.6334   48.2588 C   0  0  0  0  0  0  0  0  0  0  0  0
   14.0151   97.8169   47.2126 F   0  0  0  0  0  0  0  0  0  0  0  0
   14.9431   99.3790   48.7293 C   0  0  0  0  0  0  0  0  0  0  0  0
   14.4166  100.4604   49.6368 C   0  0  0  0  0  0  0  0  0  0  0  0
   13.8920   99.7305   53.3274 C   0  0  0  0  0  0  0  0  0  0  0  0
   14.7790  100.2160   54.3128 C   0  0  0  0  0  0  0  0  0  0  0  0
   13.8301   98.3409   56.8537 C   0  0  0  0  0  0  0  0  0  0  0  0
   12.8137   97.7337   57.5945 C   0  0  0  0  0  0  0  0  0  0  0  0
   11.6597   98.3847   57.9496 C   0  0  0  0  0  0  0  0  0  0  0  0
   10.5991   97.7719   58.6893 N   0  0  0  0  0  0  0  0  0  0  0  0
   10.6316   96.3483   59.0726 C   0  0  0  0  0  0  0  0  0  0  0  0
   11.0684   96.3253   60.5112 C   0  0  0  0  0  0  0  0  0  0  0  0
   12.1507   96.8964   60.9796 C   0  0  0  0  0  0  0  0  0  0  0  0
   12.6488   96.7020   62.3054 C   0  0  0  0  0  0  0  0  0  0  0  0
   11.8962   95.8487   63.0715 C   0  0  0  0  0  0  0  0  0  0  0  0
   10.7922   95.2711   62.5965 C   0  0  0  0  0  0  0  0  0  0  0  0
   10.3015   95.4565   61.3193 N   0  0  0  0  0  0  0  0  0  0  0  0
  1  2  3  0
  2  3  1  0
  3  4  2  0
  4  5  1  0
  5  6  1  0
  6  7  2  0
  7  8  1  0
  8  9  2  0
  9 10  1  0
 10 11  1  0
 11 12  1  0
 12 13  1  0
 13 14  1  0
 14 15  1  0
 15 16  1  0
 16 17  1  0
 16 18  1  0
 18 19  1  0
 12 20  2  0
 20 21  1  0
  5 22  2  0
 22 23  1  0
 23 24  2  0
 24 25  1  0
 25 26  1  0
 26 27  1  0
 27 28  2  0
 28 29  1  0
 29 30  2  0
 30 31  1  0
 31 32  2  0
 24  3  1  0
 32 27  1  0
 21  6  1  0
 21 10  2  0
 19 13  1  0
M  END
$$$$
