
     RDKit          3D

 23 24  0  0  0  0  0  0  0  0999 V2000
   16.5275   55.4921   10.0598 C   0  0  0  0  0  0  0  0  0  0  0  0
   16.0112   55.0278   11.3488 C   0  0  0  0  0  0  0  0  0  0  0  0
   14.6700   55.2498   11.6529 C   0  0  0  0  0  0  0  0  0  0  0  0
   14.1570   54.8200   12.8658 C   0  0  0  0  0  0  0  0  0  0  0  0
   14.9896   54.1701   13.7677 C   0  0  0  0  0  0  0  0  0  0  0  0
   16.3049   53.9521   13.4711 C   0  0  0  0  0  0  0  0  0  0  0  0
   17.1348   53.3148   14.3450 O   0  0  0  0  0  0  0  0  0  0  0  0
   17.4967   51.9824   14.4148 C   0  0  0  0  0  0  0  0  0  0  0  0
   16.8023   51.1991   15.4654 C   0  0  0  0  0  0  0  0  0  0  0  0
   15.8713   51.7028   16.1417 O   0  0  0  0  0  0  0  0  0  0  0  0
   17.2025   49.8468   15.7100 N   0  0  0  0  0  0  0  0  0  0  0  0
   16.6549   49.2045   16.8513 C   0  0  0  0  0  0  0  0  0  0  0  0
   17.1628   47.9907   17.2275 C   0  0  0  0  0  0  0  0  0  0  0  0
   16.6541   47.3435   18.3277 C   0  0  0  0  0  0  0  0  0  0  0  0
   15.6132   47.9042   19.0844 C   0  0  0  0  0  0  0  0  0  0  0  0
   15.0997   49.1081   18.7228 C   0  0  0  0  0  0  0  0  0  0  0  0
   14.0620   49.7762   19.3907 N   0  0  0  0  0  0  0  0  0  0  0  0
   12.9182   50.3255   18.7621 C   0  0  0  0  0  0  0  0  0  0  0  0
   11.8856   50.9350   19.5478 N   0  0  0  0  0  0  0  0  0  0  0  0
   12.7583   50.3061   17.5297 O   0  0  0  0  0  0  0  0  0  0  0  0
   15.6384   49.7439   17.5968 C   0  0  0  0  0  0  0  0  0  0  0  0
   16.8037   54.3843   12.2610 C   0  0  0  0  0  0  0  0  0  0  0  0
   18.2125   54.1482   11.9476 C   0  0  0  0  0  0  0  0  0  0  0  0
  1  2  1  0
  2  3  2  0
  3  4  1  0
  4  5  2  0
  5  6  1  0
  6  7  1  0
  7  8  1  0
  8  9  1  0
  9 10  2  0
  9 11  1  0
 11 12  1  0
 12 13  2  0
 13 14  1  0
 14 15  2  0
 15 16  1  0
 16 17  1  0
 17 18  1  0
 18 19  1  0
 18 20  2  0
 16 21  2  0
  6 22  2  0
 22 23  1  0
 22  2  1  0
 21 12  1  0
M  END
$$$$
