
     RDKit          3D

 22 24  0  0  0  0  0  0  0  0999 V2000
   11.8137   98.8847   53.2192 O   0  0  0  0  0  0  0  0  0  0  0  0
   11.8056   99.2996   54.4060 C   0  0  0  0  0  0  0  0  0  0  0  0
   12.5381  100.4444   54.9689 C   0  0  0  0  0  0  0  0  0  0  0  0
   12.8155   99.9891   56.3823 C   0  0  0  0  0  0  0  0  0  0  0  0
   11.5908   99.2165   56.7465 C   0  0  2  0  0  0  0  0  0  0  0  0
   11.9982   98.0265   57.5673 C   0  0  0  0  0  0  0  0  0  0  0  0
   12.2557   96.9324   57.0062 O   0  0  0  0  0  0  0  0  0  0  0  0
   12.1001   98.1104   58.9791 N   0  0  0  0  0  0  0  0  0  0  0  0
   12.3980   96.9128   59.7396 C   0  0  0  0  0  0  0  0  0  0  0  0
   12.7065   97.3230   61.1590 C   0  0  0  0  0  0  0  0  0  0  0  0
   13.1096   96.1288   61.9669 C   0  0  0  0  0  0  0  0  0  0  0  0
   14.3529   95.6410   62.1512 N   0  0  0  0  0  0  0  0  0  0  0  0
   14.2809   94.5870   62.9221 N   0  0  0  0  0  0  0  0  0  0  0  0
   12.9872   94.3751   63.2498 C   0  0  0  0  0  0  0  0  0  0  0  0
   12.4480   93.3066   64.0943 C   0  0  0  0  0  0  0  0  0  0  0  0
   11.0862   93.2018   64.2370 C   0  0  0  0  0  0  0  0  0  0  0  0
   10.5498   92.1866   65.0403 C   0  0  0  0  0  0  0  0  0  0  0  0
   11.3790   91.2959   65.6857 C   0  0  0  0  0  0  0  0  0  0  0  0
   12.7398   91.3950   65.5474 C   0  0  0  0  0  0  0  0  0  0  0  0
   13.2413   92.4014   64.7524 C   0  0  0  0  0  0  0  0  0  0  0  0
   12.3196   95.3357   62.6463 O   0  0  0  0  0  0  0  0  0  0  0  0
   11.0677   98.7331   55.4765 N   0  0  0  0  0  0  0  0  0  0  0  0
  1  2  2  0
  2  3  1  0
  3  4  1  0
  4  5  1  0
  5  6  1  1
  6  7  2  0
  6  8  1  0
  8  9  1  0
  9 10  1  0
 10 11  1  0
 11 12  2  0
 12 13  1  0
 13 14  2  0
 14 15  1  0
 15 16  2  0
 16 17  1  0
 17 18  2  0
 18 19  1  0
 19 20  2  0
 14 21  1  0
  5 22  1  0
 22  2  1  0
 21 11  1  0
 20 15  1  0
M  END
$$$$
