
     RDKit          3D

 23 25  0  0  0  0  0  0  0  0999 V2000
   10.1772  100.0223   60.3772 C   0  0  0  0  0  0  0  0  0  0  0  0
   11.1714  100.3620   59.4628 O   0  0  0  0  0  0  0  0  0  0  0  0
   10.9473   99.7392   58.2195 C   0  0  0  0  0  0  0  0  0  0  0  0
   11.1912  100.7670   57.1658 C   0  0  0  0  0  0  0  0  0  0  0  0
   12.1416  100.2794   56.0846 C   0  0  0  0  0  0  0  0  0  0  0  0
   13.3356   99.7705   56.7029 N   0  0  0  0  0  0  0  0  0  0  0  0
   14.5753   99.8684   56.0359 C   0  0  0  0  0  0  0  0  0  0  0  0
   15.6521   99.4555   56.5792 O   0  0  0  0  0  0  0  0  0  0  0  0
   14.6472  100.4579   54.6799 C   0  0  0  0  0  0  0  0  0  0  0  0
   15.9455   99.9295   54.0557 C   0  0  0  0  0  0  0  0  0  0  0  0
   15.5467   99.0503   53.0311 O   0  0  0  0  0  0  0  0  0  0  0  0
   15.1800   99.4849   51.7816 C   0  0  0  0  0  0  0  0  0  0  0  0
   14.4285   98.6652   50.9309 C   0  0  0  0  0  0  0  0  0  0  0  0
   14.0782   99.1257   49.6906 C   0  0  0  0  0  0  0  0  0  0  0  0
   14.4551  100.3794   49.2737 C   0  0  0  0  0  0  0  0  0  0  0  0
   14.0865  100.7916   48.0398 F   0  0  0  0  0  0  0  0  0  0  0  0
   15.1904  101.2119   50.0758 C   0  0  0  0  0  0  0  0  0  0  0  0
   15.5440  100.7330   51.3419 C   0  0  0  0  0  0  0  0  0  0  0  0
   16.3104  101.5640   52.2158 N   0  0  0  0  0  0  0  0  0  0  0  0
   16.6789  101.1074   53.4959 C   0  0  0  0  0  0  0  0  0  0  0  0
   17.5818  101.6362   54.1793 O   0  0  0  0  0  0  0  0  0  0  0  0
   13.3017   99.1494   58.0097 C   0  0  0  0  0  0  0  0  0  0  0  0
   11.8871   98.5682   58.1420 C   0  0  0  0  0  0  0  0  0  0  0  0
  1  2  1  0
  2  3  1  0
  3  4  1  0
  4  5  1  0
  5  6  1  0
  6  7  1  0
  7  8  2  0
  7  9  1  0
  9 10  1  0
 10 11  1  0
 11 12  1  0
 12 13  2  0
 13 14  1  0
 14 15  2  0
 15 16  1  0
 15 17  1  0
 17 18  2  0
 18 19  1  0
 19 20  1  0
 20 21  2  0
  6 22  1  0
 22 23  1  0
 23  3  1  0
 20 10  1  0
 18 12  1  0
M  END
$$$$
