
     RDKit          3D

 31 35  0  0  0  0  0  0  0  0999 V2000
   17.2826   55.5771   14.8494 C   0  0  0  0  0  0  0  0  0  0  0  0
   16.3516   55.0927   13.8570 N   0  0  0  0  0  0  0  0  0  0  0  0
   15.7265   53.8405   14.0719 C   0  0  0  0  0  0  0  0  0  0  0  0
   14.6974   53.5017   13.2794 N   0  0  0  0  0  0  0  0  0  0  0  0
   14.0524   52.3379   13.4099 C   0  0  0  0  0  0  0  0  0  0  0  0
   14.4957   51.4776   14.4145 C   0  0  0  0  0  0  0  0  0  0  0  0
   15.5388   51.7882   15.2389 C   0  0  0  0  0  0  0  0  0  0  0  0
   15.9999   50.8819   16.2835 C   0  0  0  0  0  0  0  0  0  0  0  0
   17.3243   50.6273   16.5380 C   0  0  0  0  0  0  0  0  0  0  0  0
   17.6693   49.7456   17.5676 C   0  0  0  0  0  0  0  0  0  0  0  0
   19.0811   49.4780   17.8419 C   0  0  0  0  0  0  0  0  0  0  0  0
   20.1742   49.2577   18.0702 N   0  0  0  0  0  0  0  0  0  0  0  0
   16.7487   49.1054   18.3558 C   0  0  0  0  0  0  0  0  0  0  0  0
   15.4170   49.3560   18.1049 C   0  0  0  0  0  0  0  0  0  0  0  0
   15.0644   50.2285   17.0868 C   0  0  0  0  0  0  0  0  0  0  0  0
   14.6226   48.5510   19.0681 C   0  0  1  0  0  0  0  0  0  0  0  0
   13.4976   49.3968   19.5853 C   0  0  0  0  0  0  0  0  0  0  0  0
   14.1234   47.2664   18.4333 C   0  0  0  0  0  0  0  0  0  0  0  0
   13.2897   46.5734   19.2976 O   0  0  0  0  0  0  0  0  0  0  0  0
   15.5875   48.2765   20.1877 C   0  0  0  0  0  0  0  0  0  0  0  0
   16.8441   48.1921   19.4473 N   0  0  0  0  0  0  0  0  0  0  0  0
   16.1464   52.9919   15.0456 N   0  0  0  0  0  0  0  0  0  0  0  0
   16.1171   55.8959   12.7062 C   0  0  0  0  0  0  0  0  0  0  0  0
   17.1187   56.1454   11.7832 C   0  0  0  0  0  0  0  0  0  0  0  0
   16.8780   56.9204   10.6796 C   0  0  0  0  0  0  0  0  0  0  0  0
   15.6497   57.4801   10.4372 C   0  0  0  0  0  0  0  0  0  0  0  0
   14.6445   57.2344   11.3563 C   0  0  0  0  0  0  0  0  0  0  0  0
   13.3502   57.6102   11.4409 N   0  0  0  0  0  0  0  0  0  0  0  0
   12.7955   57.1084   12.5304 N   0  0  0  0  0  0  0  0  0  0  0  0
   13.6813   56.3872   13.2094 C   0  0  0  0  0  0  0  0  0  0  0  0
   14.8665   56.4459   12.4917 C   0  0  0  0  0  0  0  0  0  0  0  0
  1  2  1  0
  2  3  1  0
  3  4  2  0
  4  5  1  0
  5  6  2  0
  6  7  1  0
  7  8  1  0
  8  9  2  0
  9 10  1  0
 10 11  1  0
 11 12  3  0
 10 13  2  0
 13 14  1  0
 14 15  2  0
 14 16  1  0
 16 17  1  1
 16 18  1  0
 18 19  1  0
 16 20  1  0
 20 21  1  0
  7 22  2  0
  2 23  1  0
 23 24  2  0
 24 25  1  0
 25 26  2  0
 26 27  1  0
 27 28  1  0
 28 29  1  0
 29 30  2  0
 30 31  1  0
 22  3  1  0
 31 23  1  0
 15  8  1  0
 31 27  2  0
 21 13  1  0
M  END
$$$$
