
     RDKit          3D

 31 33  0  0  0  0  0  0  0  0999 V2000
   12.3782   96.3235   60.8615 C   0  0  0  0  0  0  0  0  0  0  0  0
   13.6265   97.1867   60.4752 C   0  0  0  0  0  0  0  0  0  0  0  0
   13.3071   97.9319   59.4662 O   0  0  0  0  0  0  0  0  0  0  0  0
   12.9291   98.7428   58.5349 C   0  0  0  0  0  0  0  0  0  0  0  0
   11.8940   99.6795   58.8261 C   0  0  0  0  0  0  0  0  0  0  0  0
   11.5307  100.5327   57.8720 C   0  0  0  0  0  0  0  0  0  0  0  0
   12.0939  100.5681   56.6266 C   0  0  0  0  0  0  0  0  0  0  0  0
   13.0898   99.6739   56.3294 C   0  0  0  0  0  0  0  0  0  0  0  0
   13.8030   99.7239   55.0566 C   0  0  0  0  0  0  0  0  0  0  0  0
   14.9801  100.4693   55.0623 C   0  0  0  0  0  0  0  0  0  0  0  0
   15.1806  101.4859   56.1572 C   0  0  0  0  0  0  0  0  0  0  0  0
   15.3185  102.2646   56.9743 N   0  0  0  0  0  0  0  0  0  0  0  0
   15.7227  100.5753   53.9659 C   0  0  0  0  0  0  0  0  0  0  0  0
   16.9390  101.3003   53.9830 O   0  0  0  0  0  0  0  0  0  0  0  0
   15.3545   99.9792   52.7827 N   0  0  0  0  0  0  0  0  0  0  0  0
   14.2359   99.2677   52.6940 C   0  0  0  0  0  0  0  0  0  0  0  0
   13.4429   98.7884   51.2268 S   0  0  0  0  0  0  0  0  0  0  0  0
   13.9764   99.1272   49.6415 C   0  0  0  0  0  0  0  0  0  0  0  0
   14.4294  100.6500   49.5396 C   0  0  0  0  0  0  0  0  0  0  0  0
   14.0966  101.4166   50.2741 O   0  0  0  0  0  0  0  0  0  0  0  0
   15.3046  100.8110   48.3551 N   0  0  0  0  0  0  0  0  0  0  0  0
   15.7360  102.2034   48.1697 C   0  0  0  0  0  0  0  0  0  0  0  0
   17.2113  102.2661   47.8953 C   0  0  0  0  0  0  0  0  0  0  0  0
   17.5228  102.2129   46.3947 C   0  0  0  0  0  0  0  0  0  0  0  0
   16.6141  101.1655   45.7648 C   0  0  0  0  0  0  0  0  0  0  0  0
   16.7060   99.8889   46.5798 C   0  0  0  0  0  0  0  0  0  0  0  0
   15.5448   99.7001   47.5042 C   0  0  0  0  0  0  0  0  0  0  0  0
   13.4569   99.1390   53.8718 C   0  0  0  0  0  0  0  0  0  0  0  0
   12.2857   98.3488   53.8009 C   0  0  0  0  0  0  0  0  0  0  0  0
   11.2670   97.6722   53.7575 N   0  0  0  0  0  0  0  0  0  0  0  0
   13.5282   98.7351   57.2603 C   0  0  0  0  0  0  0  0  0  0  0  0
  1  2  1  0
  2  3  1  0
  3  4  1  0
  4  5  2  0
  5  6  1  0
  6  7  2  0
  7  8  1  0
  8  9  1  0
  9 10  2  0
 10 11  1  0
 11 12  3  0
 10 13  1  0
 13 14  1  0
 13 15  2  0
 15 16  1  0
 16 17  1  0
 17 18  1  0
 18 19  1  0
 19 20  2  0
 19 21  1  0
 21 22  1  0
 22 23  1  0
 23 24  1  0
 24 25  1  0
 25 26  1  0
 26 27  1  0
 16 28  2  0
 28 29  1  0
 29 30  3  0
  8 31  2  0
 31  4  1  0
 28  9  1  0
 27 21  1  0
M  END
$$$$
