
     RDKit          3D

 18 20  0  0  0  0  0  0  0  0999 V2000
   14.6491   55.5978   14.4297 N   0  0  0  0  0  0  0  0  0  0  0  0
   15.4177   55.5428   13.2343 C   0  0  0  0  0  0  0  0  0  0  0  0
   15.6029   54.2359   12.7588 C   0  0  0  0  0  0  0  0  0  0  0  0
   16.4046   53.9508   11.6957 C   0  0  0  0  0  0  0  0  0  0  0  0
   16.5667   52.6808   11.2557 F   0  0  0  0  0  0  0  0  0  0  0  0
   17.0435   54.9988   11.0853 C   0  0  0  0  0  0  0  0  0  0  0  0
   16.8639   56.2613   11.5424 C   0  0  0  0  0  0  0  0  0  0  0  0
   16.0337   56.5980   12.6459 C   0  0  0  0  0  0  0  0  0  0  0  0
   15.8286   58.0020   12.8953 C   0  0  0  0  0  0  0  0  0  0  0  0
   16.9291   58.7801   13.2271 N   0  0  0  0  0  0  0  0  0  0  0  0
   16.6109   60.0133   13.3576 N   0  0  0  0  0  0  0  0  0  0  0  0
   15.3133   60.1578   13.1294 C   0  0  0  0  0  0  0  0  0  0  0  0
   14.8550   58.8980   12.8428 N   0  0  0  0  0  0  0  0  0  0  0  0
   13.5094   58.5564   12.4228 C   0  0  0  0  0  0  0  0  0  0  0  0
   12.7402   59.8777   12.1575 C   0  0  0  0  0  0  0  0  0  0  0  0
   12.3338   60.3973   13.5091 C   0  0  0  0  0  0  0  0  0  0  0  0
   13.3084   61.4329   13.9310 C   0  0  0  0  0  0  0  0  0  0  0  0
   14.6162   61.4256   13.1960 C   0  0  0  0  0  0  0  0  0  0  0  0
  1  2  1  0
  2  3  2  0
  3  4  1  0
  4  5  1  0
  4  6  2  0
  6  7  1  0
  7  8  2  0
  8  9  1  0
  9 10  2  0
 10 11  1  0
 11 12  2  0
 12 13  1  0
 13 14  1  0
 14 15  1  0
 15 16  1  0
 16 17  1  0
 17 18  1  0
  8  2  1  0
 13  9  1  0
 18 12  1  0
M  END
$$$$
