
     RDKit          3D

 24 26  0  0  0  0  0  0  0  0999 V2000
   16.9970  101.9883   52.5187 C   0  0  0  0  0  0  0  0  0  0  0  0
   15.8692  101.4837   53.0209 O   0  0  0  0  0  0  0  0  0  0  0  0
   15.5091  101.4921   54.2971 C   0  0  0  0  0  0  0  0  0  0  0  0
   14.2794  100.8350   54.7617 C   0  0  0  0  0  0  0  0  0  0  0  0
   14.3611   99.6327   55.6253 C   0  0  0  0  0  0  0  0  0  0  0  0
   13.0045   99.0537   55.8027 N   0  0  0  0  0  0  0  0  0  0  0  0
   12.2519   99.3737   56.9655 C   0  0  0  0  0  0  0  0  0  0  0  0
   12.1913   98.5285   58.0518 C   0  0  0  0  0  0  0  0  0  0  0  0
   11.4511   98.8279   59.1803 C   0  0  0  0  0  0  0  0  0  0  0  0
   11.4234   97.8966   60.2965 C   0  0  0  0  0  0  0  0  0  0  0  0
   10.4518   97.8487   61.2589 N   0  0  0  0  0  0  0  0  0  0  0  0
   10.7317   96.9108   62.1246 N   0  0  0  0  0  0  0  0  0  0  0  0
   11.8784   96.3087   61.7781 C   0  0  0  0  0  0  0  0  0  0  0  0
   12.5926   95.2439   62.4754 C   0  0  0  0  0  0  0  0  0  0  0  0
   11.9888   94.3830   63.3598 C   0  0  0  0  0  0  0  0  0  0  0  0
   12.7054   93.3524   63.9665 C   0  0  0  0  0  0  0  0  0  0  0  0
   14.0491   93.1570   63.7029 C   0  0  0  0  0  0  0  0  0  0  0  0
   14.6386   94.0312   62.8137 C   0  0  0  0  0  0  0  0  0  0  0  0
   16.3447   93.8014   62.4659 Cl  0  0  0  0  0  0  0  0  0  0  0  0
   13.9368   95.0529   62.2099 C   0  0  0  0  0  0  0  0  0  0  0  0
   12.2829   96.9289   60.6538 N   0  0  0  0  0  0  0  0  0  0  0  0
   10.7510  100.0104   59.2205 C   0  0  0  0  0  0  0  0  0  0  0  0
   10.8149  100.8502   58.1320 C   0  0  0  0  0  0  0  0  0  0  0  0
   11.5450  100.5156   57.0645 N   0  0  0  0  0  0  0  0  0  0  0  0
  1  2  1  0
  2  3  1  0
  3  4  1  0
  4  5  1  0
  5  6  1  0
  6  7  1  0
  7  8  2  0
  8  9  1  0
  9 10  1  0
 10 11  2  0
 11 12  1  0
 12 13  1  0
 13 14  1  0
 14 15  2  0
 15 16  1  0
 16 17  2  0
 17 18  1  0
 18 19  1  0
 18 20  2  0
 13 21  2  0
  9 22  2  0
 22 23  1  0
 23 24  2  0
 24  7  1  0
 21 10  1  0
 20 14  1  0
M  END
$$$$
