
     RDKit          3D

 13 13  0  0  0  0  0  0  0  0999 V2000
   16.9337   51.3216   14.1275 O   0  0  0  0  0  0  0  0  0  0  0  0
   16.4042   52.4093   14.9982 P   0  0  0  0  0  5  0  0  0  0  0  0
   15.0303   53.1466   14.3530 O   0  0  0  0  0  0  0  0  0  0  0  0
   17.5769   53.6354   15.2168 O   0  0  0  0  0  0  0  0  0  0  0  0
   16.0844   51.7218   16.6443 C   0  0  0  0  0  0  0  0  0  0  0  0
   15.2157   50.6193   16.4531 O   0  0  0  0  0  0  0  0  0  0  0  0
   15.3181   49.5112   17.2828 C   0  0  0  0  0  0  0  0  0  0  0  0
   16.5504   48.9629   17.5734 C   0  0  0  0  0  0  0  0  0  0  0  0
   16.5530   47.8611   18.4084 C   0  0  0  0  0  0  0  0  0  0  0  0
   15.4173   47.3163   18.9367 C   0  0  0  0  0  0  0  0  0  0  0  0
   14.2023   47.9050   18.6138 C   0  0  0  0  0  0  0  0  0  0  0  0
   14.1325   49.0059   17.7862 C   0  0  0  0  0  0  0  0  0  0  0  0
   12.9390   49.5865   17.4672 F   0  0  0  0  0  0  0  0  0  0  0  0
  1  2  2  0
  2  3  1  0
  2  4  1  0
  2  5  1  0
  5  6  1  0
  6  7  1  0
  7  8  2  0
  8  9  1  0
  9 10  2  0
 10 11  1  0
 11 12  2  0
 12 13  1  0
 12  7  1  0
M  END
$$$$
