
     RDKit          3D

 34 37  0  0  0  0  0  0  0  0999 V2000
    9.5453  100.3675   60.8666 C   0  0  0  0  0  0  0  0  0  0  0  0
   10.3048   99.2608   60.1565 C   0  0  2  0  0  0  0  0  0  0  0  0
    9.4462   98.5602   59.2237 N   0  0  0  0  0  0  0  0  0  0  0  0
    9.9041   98.4558   57.8735 C   0  0  0  0  0  0  0  0  0  0  0  0
    9.0662   98.0090   56.9298 N   0  0  0  0  0  0  0  0  0  0  0  0
    9.4325   97.8855   55.6351 C   0  0  0  0  0  0  0  0  0  0  0  0
   10.7257   98.2380   55.2875 C   0  0  0  0  0  0  0  0  0  0  0  0
   11.1499   98.1353   54.0052 F   0  0  0  0  0  0  0  0  0  0  0  0
   11.6118   98.7037   56.2497 C   0  0  0  0  0  0  0  0  0  0  0  0
   12.9228   99.0607   55.8952 N   0  0  0  0  0  0  0  0  0  0  0  0
   13.4323   99.1316   54.5458 C   0  0  2  0  0  0  0  0  0  0  0  0
   13.5153   97.7599   53.9613 C   0  0  0  0  0  0  0  0  0  0  0  0
   14.6540   99.7908   54.6052 O   0  0  0  0  0  0  0  0  0  0  0  0
   15.1707   99.6592   55.8707 C   0  0  0  0  0  0  0  0  0  0  0  0
   16.1608   98.5067   55.9330 C   0  0  0  0  0  0  0  0  0  0  0  0
   15.8994  100.8941   56.3570 C   0  0  0  0  0  0  0  0  0  0  0  0
   13.9885   99.4170   56.7918 C   0  0  1  0  0  0  0  0  0  0  0  0
   13.6493  100.6130   57.4249 O   0  0  0  0  0  0  0  0  0  0  0  0
   11.1505   98.7941   57.5306 N   0  0  0  0  0  0  0  0  0  0  0  0
   10.8521   98.3271   61.1743 C   0  0  0  0  0  0  0  0  0  0  0  0
   10.2689   97.0947   61.3205 C   0  0  0  0  0  0  0  0  0  0  0  0
   10.7878   96.2386   62.2693 C   0  0  0  0  0  0  0  0  0  0  0  0
   11.8559   96.5946   63.0521 C   0  0  0  0  0  0  0  0  0  0  0  0
   12.3951   95.6608   64.0655 C   0  0  0  0  0  0  0  0  0  0  0  0
   12.7928   94.4519   63.4672 N   0  0  0  0  0  0  0  0  0  0  0  0
   13.1789   93.3770   64.2978 C   0  0  0  0  0  0  0  0  0  0  0  0
   14.4150   92.6492   63.8926 C   0  0  0  0  0  0  0  0  0  0  0  0
   15.3469   93.3473   62.9983 C   0  0  0  0  0  0  0  0  0  0  0  0
   16.4150   93.8787   63.7035 F   0  0  0  0  0  0  0  0  0  0  0  0
   15.9263   92.4320   62.1042 F   0  0  0  0  0  0  0  0  0  0  0  0
   14.7734   94.4504   62.1627 C   0  0  0  0  0  0  0  0  0  0  0  0
   13.2641   94.4516   62.1397 C   0  0  0  0  0  0  0  0  0  0  0  0
   12.4203   97.8392   62.8819 C   0  0  0  0  0  0  0  0  0  0  0  0
   11.9254   98.7367   61.9322 C   0  0  0  0  0  0  0  0  0  0  0  0
  2  1  1  1
  2  3  1  0
  3  4  1  0
  4  5  2  0
  5  6  1  0
  6  7  2  0
  7  8  1  0
  7  9  1  0
  9 10  1  0
 10 11  1  0
 11 12  1  1
 11 13  1  0
 13 14  1  0
 14 15  1  0
 14 16  1  0
 14 17  1  0
 17 18  1  6
  9 19  2  0
  2 20  1  0
 20 21  2  0
 21 22  1  0
 22 23  2  0
 23 24  1  0
 24 25  1  0
 25 26  1  0
 26 27  1  0
 27 28  1  0
 28 29  1  0
 28 30  1  0
 28 31  1  0
 31 32  1  0
 23 33  1  0
 33 34  2  0
 19  4  1  0
 34 20  1  0
 17 10  1  0
 32 25  1  0
M  END
$$$$
