
     RDKit          3D

 20 21  0  0  0  0  0  0  0  0999 V2000
    9.3198   98.6297   59.5045 N   0  0  0  0  0  0  0  0  0  0  0  0
   10.4276   98.3264   59.6104 C   0  0  0  0  0  0  0  0  0  0  0  0
   11.8066   97.9289   59.7274 C   0  0  0  0  0  0  0  0  0  0  0  0
   12.7361   98.6067   58.9977 N   0  0  0  0  0  0  0  0  0  0  0  0
   14.0392   98.2930   59.0538 C   0  0  0  0  0  0  0  0  0  0  0  0
   14.4989   97.2681   59.8541 C   0  0  0  0  0  0  0  0  0  0  0  0
   13.5834   96.6104   60.5645 N   0  0  0  0  0  0  0  0  0  0  0  0
   12.2440   96.9066   60.5292 C   0  0  0  0  0  0  0  0  0  0  0  0
   11.3423   96.1601   61.3154 N   0  0  0  0  0  0  0  0  0  0  0  0
   11.6673   95.2531   62.3284 C   0  0  0  0  0  0  0  0  0  0  0  0
   12.9419   94.8281   62.5092 N   0  0  0  0  0  0  0  0  0  0  0  0
   13.2895   93.9731   63.4858 C   0  0  0  0  0  0  0  0  0  0  0  0
   14.7208   93.5323   63.6435 C   0  0  0  0  0  0  0  0  0  0  0  0
   15.5063   94.6471   63.8836 F   0  0  0  0  0  0  0  0  0  0  0  0
   15.1195   93.0053   62.4295 F   0  0  0  0  0  0  0  0  0  0  0  0
   14.8494   92.6670   64.6821 F   0  0  0  0  0  0  0  0  0  0  0  0
   12.3110   93.5168   64.3289 C   0  0  0  0  0  0  0  0  0  0  0  0
   11.0062   93.9322   64.1686 C   0  0  0  0  0  0  0  0  0  0  0  0
   10.6496   94.8089   63.1673 C   0  0  0  0  0  0  0  0  0  0  0  0
    9.3707   95.1896   63.0431 F   0  0  0  0  0  0  0  0  0  0  0  0
  1  2  3  0
  2  3  1  0
  3  4  2  0
  4  5  1  0
  5  6  2  0
  6  7  1  0
  7  8  2  0
  8  9  1  0
  9 10  1  0
 10 11  2  0
 11 12  1  0
 12 13  1  0
 13 14  1  0
 13 15  1  0
 13 16  1  0
 12 17  2  0
 17 18  1  0
 18 19  2  0
 19 20  1  0
  8  3  1  0
 19 10  1  0
M  END
$$$$
