
     RDKit          3D

 31 35  0  0  0  0  0  0  0  0999 V2000
   13.2089   48.6784   19.7859 C   0  0  0  0  0  0  0  0  0  0  0  0
   13.7500   49.1895   18.5122 C   0  0  0  0  0  0  0  0  0  0  0  0
   12.9802   49.6895   17.4769 C   0  0  0  0  0  0  0  0  0  0  0  0
   13.9164   50.0453   16.4991 C   0  0  0  0  0  0  0  0  0  0  0  0
   15.1689   49.7453   16.9920 C   0  0  0  0  0  0  0  0  0  0  0  0
   16.4296   49.9749   16.2546 C   0  0  0  0  0  0  0  0  0  0  0  0
   16.2032   50.7671   15.0702 N   0  0  0  0  0  0  0  0  0  0  0  0
   16.7135   52.1075   15.0230 C   0  0  0  0  0  0  0  0  0  0  0  0
   17.3198   52.5512   16.0323 O   0  0  0  0  0  0  0  0  0  0  0  0
   16.5207   52.9351   13.8039 C   0  0  1  0  0  0  0  0  0  0  0  0
   17.1163   54.3032   14.0767 C   0  0  2  0  0  0  0  0  0  0  0  0
   16.1780   55.4126   13.8805 C   0  0  0  0  0  0  0  0  0  0  0  0
   15.2688   55.3696   13.0122 O   0  0  0  0  0  0  0  0  0  0  0  0
   16.2769   56.5864   14.6840 N   0  0  0  0  0  0  0  0  0  0  0  0
   15.0871   57.3758   14.9521 C   0  0  0  0  0  0  0  0  0  0  0  0
   14.5565   57.8441   13.6129 C   0  0  0  0  0  0  0  0  0  0  0  0
   13.7053   59.0782   13.8360 C   0  0  0  0  0  0  0  0  0  0  0  0
   14.1405   60.2210   12.9569 C   0  0  0  0  0  0  0  0  0  0  0  0
   13.0905   61.2121   12.8031 N   0  0  0  0  0  0  0  0  0  0  0  0
   12.0449   60.6200   11.9984 C   0  0  0  0  0  0  0  0  0  0  0  0
   11.2198   61.7991   11.5427 C   0  0  0  0  0  0  0  0  0  0  0  0
   12.2796   62.8754   11.3733 C   0  0  0  0  0  0  0  0  0  0  0  0
   13.5457   62.3056   11.9626 C   0  0  0  0  0  0  0  0  0  0  0  0
   18.2117   54.4148   13.0286 C   0  0  1  0  0  0  0  0  0  0  0  0
   19.2549   53.4115   13.4769 C   0  0  0  0  0  0  0  0  0  0  0  0
   18.7456   52.1949   13.2897 C   0  0  0  0  0  0  0  0  0  0  0  0
   17.3890   52.3701   12.6980 C   0  0  2  0  0  0  0  0  0  0  0  0
   17.6218   53.6405   11.9039 C   0  0  0  0  0  0  0  0  0  0  0  0
   18.1705   53.6071   10.5473 C   0  0  0  0  0  0  0  0  0  0  0  0
   16.7408   54.1204   10.8717 C   0  0  0  0  0  0  0  0  0  0  0  0
   15.0198   49.2421   18.1840 O   0  0  0  0  0  0  0  0  0  0  0  0
  1  2  1  0
  2  3  2  0
  3  4  1  0
  4  5  2  0
  5  6  1  0
  6  7  1  0
  7  8  1  0
  8  9  2  0
 10  8  1  1
 10 11  1  0
 11 12  1  6
 12 13  2  0
 12 14  1  0
 14 15  1  0
 15 16  1  0
 16 17  1  0
 17 18  1  0
 18 19  1  0
 19 20  1  0
 20 21  1  0
 21 22  1  0
 22 23  1  0
 11 24  1  0
 24 25  1  1
 25 26  2  0
 27 26  1  1
 27 28  1  0
 28 29  1  0
 29 30  1  0
  5 31  1  0
 31  2  1  0
 27 10  1  0
 30 28  1  0
 23 19  1  0
 28 24  1  0
M  END
$$$$
