
     RDKit          3D

 23 25  0  0  0  0  0  0  0  0999 V2000
   14.4323   90.9407   63.8346 C   0  0  0  0  0  0  0  0  0  0  0  0
   13.4335   91.6500   64.7043 C   0  0  0  0  0  0  0  0  0  0  0  0
   13.3074   90.8356   65.9841 C   0  0  0  0  0  0  0  0  0  0  0  0
   13.7541   93.0731   64.9702 C   0  0  0  0  0  0  0  0  0  0  0  0
   12.6992   94.0328   64.5052 C   0  0  1  0  0  0  0  0  0  0  0  0
   13.3393   95.0523   63.6045 C   0  0  0  0  0  0  0  0  0  0  0  0
   12.3251   95.6538   62.7756 N   0  0  0  0  0  0  0  0  0  0  0  0
   12.7364   96.2603   61.5911 C   0  0  0  0  0  0  0  0  0  0  0  0
   13.8197   95.9143   61.0475 O   0  0  0  0  0  0  0  0  0  0  0  0
   11.9740   97.2965   60.9289 C   0  0  0  0  0  0  0  0  0  0  0  0
   12.3234   97.9223   59.7125 C   0  0  0  0  0  0  0  0  0  0  0  0
   11.3651   98.8546   59.4195 C   0  0  0  0  0  0  0  0  0  0  0  0
   11.3099   99.7508   58.2500 C   0  0  0  0  0  0  0  0  0  0  0  0
   12.0779   99.5845   57.1264 C   0  0  0  0  0  0  0  0  0  0  0  0
   12.0195  100.4159   56.0311 C   0  0  0  0  0  0  0  0  0  0  0  0
   11.1373  101.4924   56.0452 C   0  0  0  0  0  0  0  0  0  0  0  0
   10.3446  101.6892   57.1681 C   0  0  0  0  0  0  0  0  0  0  0  0
   10.4447  100.8236   58.2388 C   0  0  0  0  0  0  0  0  0  0  0  0
   10.4889   98.8085   60.3816 O   0  0  0  0  0  0  0  0  0  0  0  0
   10.8220   97.9152   61.2644 N   0  0  0  0  0  0  0  0  0  0  0  0
   10.9586   95.5995   63.2185 C   0  0  0  0  0  0  0  0  0  0  0  0
   10.5771   94.2459   63.7657 C   0  0  0  0  0  0  0  0  0  0  0  0
   11.6794   93.3962   63.8336 O   0  0  0  0  0  0  0  0  0  0  0  0
  1  2  1  0
  2  3  1  0
  2  4  1  0
  5  4  1  6
  5  6  1  0
  6  7  1  0
  7  8  1  0
  8  9  2  0
  8 10  1  0
 10 11  1  0
 11 12  2  0
 12 13  1  0
 13 14  2  0
 14 15  1  0
 15 16  2  0
 16 17  1  0
 17 18  2  0
 12 19  1  0
 19 20  1  0
  7 21  1  0
 21 22  1  0
 22 23  1  0
 23  5  1  0
 20 10  2  0
 18 13  1  0
M  END
$$$$
