
     RDKit          3D

 41 45  0  0  0  0  0  0  0  0999 V2000
    9.0424   67.2700    9.8637 C   0  0  0  0  0  0  0  0  0  0  0  0
    9.4423   67.3940   11.3222 C   0  0  0  0  0  0  0  0  0  0  0  0
    8.3808   66.7395   12.1554 C   0  0  0  0  0  0  0  0  0  0  0  0
    9.4597   68.8696   11.6552 C   0  0  0  0  0  0  0  0  0  0  0  0
   10.7012   66.7956   11.4612 O   0  0  0  0  0  0  0  0  0  0  0  0
   11.1977   66.2728   12.6444 C   0  0  0  0  0  0  0  0  0  0  0  0
   10.8435   66.8304   13.7078 O   0  0  0  0  0  0  0  0  0  0  0  0
   12.0666   65.1598   12.6685 N   0  0  0  0  0  0  0  0  0  0  0  0
   12.5353   64.6908   13.9509 C   0  0  0  0  0  0  0  0  0  0  0  0
   12.5640   63.1762   13.9420 C   0  0  0  0  0  0  0  0  0  0  0  0
   13.4585   62.7768   12.7785 C   0  0  0  0  0  0  0  0  0  0  0  0
   13.7607   61.3286   12.9069 C   0  0  0  0  0  0  0  0  0  0  0  0
   13.2999   60.6299   13.8474 O   0  0  0  0  0  0  0  0  0  0  0  0
   14.5934   60.6601   11.9621 N   0  0  0  0  0  0  0  0  0  0  0  0
   14.6939   59.2233   11.9061 C   0  0  0  0  0  0  0  0  0  0  0  0
   13.7170   58.4440   11.3221 C   0  0  0  0  0  0  0  0  0  0  0  0
   13.7547   57.0847   11.2393 C   0  0  0  0  0  0  0  0  0  0  0  0
   14.8667   56.4348   11.7876 C   0  0  0  0  0  0  0  0  0  0  0  0
   15.8639   57.1746   12.3795 C   0  0  0  0  0  0  0  0  0  0  0  0
   15.7833   58.5709   12.4420 C   0  0  0  0  0  0  0  0  0  0  0  0
   16.8615   56.2168   12.8433 C   0  0  0  0  0  0  0  0  0  0  0  0
   17.9261   56.5540   13.4410 O   0  0  0  0  0  0  0  0  0  0  0  0
   16.4475   54.9141   12.5224 N   0  0  0  0  0  0  0  0  0  0  0  0
   17.1403   53.6711   12.8013 C   0  0  0  0  0  0  0  0  0  0  0  0
   16.4448   52.9015   13.8570 C   0  0  0  0  0  0  0  0  0  0  0  0
   15.3774   53.4118   14.5446 C   0  0  0  0  0  0  0  0  0  0  0  0
   14.7460   52.6591   15.5333 C   0  0  0  0  0  0  0  0  0  0  0  0
   15.1858   51.3872   15.8357 C   0  0  0  0  0  0  0  0  0  0  0  0
   14.5722   50.6168   16.8180 O   0  0  0  0  0  0  0  0  0  0  0  0
   15.3445   49.6957   17.5116 C   0  0  0  0  0  0  0  0  0  0  0  0
   14.8453   48.4755   17.8545 C   0  0  0  0  0  0  0  0  0  0  0  0
   15.6397   47.5637   18.5524 C   0  0  0  0  0  0  0  0  0  0  0  0
   16.9343   47.9129   18.8900 C   0  0  0  0  0  0  0  0  0  0  0  0
   17.4639   49.1471   18.5525 C   0  0  0  0  0  0  0  0  0  0  0  0
   16.6334   50.0129   17.8610 C   0  0  0  0  0  0  0  0  0  0  0  0
   16.2640   50.8939   15.1288 C   0  0  0  0  0  0  0  0  0  0  0  0
   16.8854   51.6348   14.1558 C   0  0  0  0  0  0  0  0  0  0  0  0
   15.2001   55.0204   11.8599 C   0  0  0  0  0  0  0  0  0  0  0  0
   14.4796   54.0674   11.4006 O   0  0  0  0  0  0  0  0  0  0  0  0
   12.6859   63.0786   11.5154 C   0  0  0  0  0  0  0  0  0  0  0  0
   12.4375   64.5554   11.4123 C   0  0  0  0  0  0  0  0  0  0  0  0
  1  2  1  0
  2  3  1  0
  2  4  1  0
  2  5  1  0
  5  6  1  0
  6  7  2  0
  6  8  1  0
  8  9  1  0
  9 10  1  0
 10 11  1  0
 11 12  1  0
 12 13  2  0
 12 14  1  0
 14 15  1  0
 15 16  2  0
 16 17  1  0
 17 18  2  0
 18 19  1  0
 19 20  2  0
 19 21  1  0
 21 22  2  0
 21 23  1  0
 23 24  1  0
 24 25  1  0
 25 26  2  0
 26 27  1  0
 27 28  2  0
 28 29  1  0
 29 30  1  0
 30 31  2  0
 31 32  1  0
 32 33  2  0
 33 34  1  0
 34 35  2  0
 28 36  1  0
 36 37  2  0
 23 38  1  0
 38 39  2  0
 11 40  1  0
 40 41  1  0
 41  8  1  0
 20 15  1  0
 37 25  1  0
 38 18  1  0
 35 30  1  0
M  END
$$$$
