
     RDKit          3D

 20 22  0  0  0  0  0  0  0  0999 V2000
   19.3398   54.2273   15.3931 C   0  0  0  0  0  0  0  0  0  0  0  0
   18.4093   54.2874   14.2260 C   0  0  0  0  0  0  0  0  0  0  0  0
   18.3959   53.2770   13.3558 N   0  0  0  0  0  0  0  0  0  0  0  0
   17.5908   53.2525   12.2814 C   0  0  0  0  0  0  0  0  0  0  0  0
   17.5765   52.1754   11.3535 N   0  0  0  0  0  0  0  0  0  0  0  0
   16.7423   54.3181   12.0705 C   0  0  0  0  0  0  0  0  0  0  0  0
   16.7570   55.3695   12.9771 C   0  0  0  0  0  0  0  0  0  0  0  0
   15.8762   56.5198   12.7955 C   0  0  0  0  0  0  0  0  0  0  0  0
   16.0965   57.6253   13.6021 C   0  0  0  0  0  0  0  0  0  0  0  0
   15.2870   58.7325   13.4624 C   0  0  0  0  0  0  0  0  0  0  0  0
   14.2885   58.7151   12.5348 C   0  0  0  0  0  0  0  0  0  0  0  0
   13.4635   59.8756   12.4183 N   0  0  0  0  0  0  0  0  0  0  0  0
   12.0501   59.8044   12.0533 C   0  0  0  0  0  0  0  0  0  0  0  0
   11.7392   61.0975   11.3093 C   0  0  0  0  0  0  0  0  0  0  0  0
   11.8451   62.1848   12.1418 O   0  0  0  0  0  0  0  0  0  0  0  0
   12.8065   62.0617   13.1137 C   0  0  0  0  0  0  0  0  0  0  0  0
   13.9864   61.2030   12.6645 C   0  0  0  0  0  0  0  0  0  0  0  0
   14.0357   57.6386   11.7143 C   0  0  0  0  0  0  0  0  0  0  0  0
   14.8682   56.5280   11.8730 C   0  0  0  0  0  0  0  0  0  0  0  0
   17.5886   55.3266   14.0293 N   0  0  0  0  0  0  0  0  0  0  0  0
  1  2  1  0
  2  3  2  0
  3  4  1  0
  4  5  1  0
  4  6  2  0
  6  7  1  0
  7  8  1  0
  8  9  2  0
  9 10  1  0
 10 11  2  0
 11 12  1  0
 12 13  1  0
 13 14  1  0
 14 15  1  0
 15 16  1  0
 16 17  1  0
 11 18  1  0
 18 19  2  0
  7 20  2  0
 20  2  1  0
 19  8  1  0
 17 12  1  0
M  END
$$$$
