
     RDKit          3D

 26 29  0  0  0  0  0  0  0  0999 V2000
   16.1897   59.5972   13.4529 O   0  0  0  0  0  0  0  0  0  0  0  0
   15.2079   58.9016   13.0631 C   0  0  0  0  0  0  0  0  0  0  0  0
   15.3406   57.4548   13.2369 C   0  0  0  0  0  0  0  0  0  0  0  0
   16.1267   56.9014   14.2144 C   0  0  0  0  0  0  0  0  0  0  0  0
   16.0043   55.5189   14.0703 C   0  0  0  0  0  0  0  0  0  0  0  0
   15.1803   55.2880   13.0511 N   0  0  0  0  0  0  0  0  0  0  0  0
   14.7799   56.4773   12.5475 N   0  0  0  0  0  0  0  0  0  0  0  0
   14.8387   53.9551   12.6555 C   0  0  0  0  0  0  0  0  0  0  0  0
   15.9136   52.9604   12.9757 C   0  0  0  0  0  0  0  0  0  0  0  0
   16.2618   53.0656   14.3616 N   0  0  0  0  0  0  0  0  0  0  0  0
   16.3275   52.0226   15.3205 C   0  0  0  0  0  0  0  0  0  0  0  0
   15.6467   50.7453   15.0017 C   0  0  0  0  0  0  0  0  0  0  0  0
   15.0269   50.1220   16.1897 C   0  0  0  0  0  0  0  0  0  0  0  0
   15.6805   49.1859   16.9799 C   0  0  0  0  0  0  0  0  0  0  0  0
   15.1230   48.5963   18.0758 C   0  0  0  0  0  0  0  0  0  0  0  0
   13.8349   48.9352   18.4386 C   0  0  0  0  0  0  0  0  0  0  0  0
   13.1580   49.8593   17.6780 C   0  0  0  0  0  0  0  0  0  0  0  0
   13.7451   50.4542   16.5570 C   0  0  0  0  0  0  0  0  0  0  0  0
   16.6005   54.3979   14.7956 C   0  0  0  0  0  0  0  0  0  0  0  0
   17.3732   54.6296   15.7544 O   0  0  0  0  0  0  0  0  0  0  0  0
   14.0462   59.4637   12.4931 N   0  0  0  0  0  0  0  0  0  0  0  0
   12.9574   58.6400   12.0377 C   0  0  0  0  0  0  0  0  0  0  0  0
   11.6872   59.1443   12.6398 C   0  0  0  0  0  0  0  0  0  0  0  0
   11.5828   60.5112   12.6551 O   0  0  0  0  0  0  0  0  0  0  0  0
   12.5166   61.1867   11.9112 C   0  0  0  0  0  0  0  0  0  0  0  0
   13.9413   60.8936   12.3611 C   0  0  0  0  0  0  0  0  0  0  0  0
  1  2  2  0
  2  3  1  0
  3  4  1  0
  4  5  2  0
  5  6  1  0
  6  7  1  0
  6  8  1  0
  8  9  1  0
  9 10  1  0
 10 11  1  0
 11 12  1  0
 12 13  1  0
 13 14  2  0
 14 15  1  0
 15 16  2  0
 16 17  1  0
 17 18  2  0
 10 19  1  0
 19 20  2  0
  2 21  1  0
 21 22  1  0
 22 23  1  0
 23 24  1  0
 24 25  1  0
 25 26  1  0
  7  3  2  0
 18 13  1  0
 26 21  1  0
 19  5  1  0
M  END
$$$$
