
     RDKit          3D

 33 37  0  0  0  0  0  0  0  0999 V2000
   15.1517   96.5088   54.9945 C   0  0  0  0  0  0  0  0  0  0  0  0
   14.5702   97.6248   55.6223 O   0  0  0  0  0  0  0  0  0  0  0  0
   15.0605   98.9182   55.5727 C   0  0  0  0  0  0  0  0  0  0  0  0
   16.3117   99.2180   55.1238 C   0  0  0  0  0  0  0  0  0  0  0  0
   16.8157  100.4837   55.0636 C   0  0  0  0  0  0  0  0  0  0  0  0
   15.9985  101.5403   55.4883 C   0  0  0  0  0  0  0  0  0  0  0  0
   16.4211  102.8204   55.4498 F   0  0  0  0  0  0  0  0  0  0  0  0
   14.7422  101.2453   55.9400 C   0  0  0  0  0  0  0  0  0  0  0  0
   14.2198   99.9677   56.0042 C   0  0  0  0  0  0  0  0  0  0  0  0
   12.8681   99.6298   56.3411 C   0  0  0  0  0  0  0  0  0  0  0  0
   11.8367   99.9932   55.4245 C   0  0  0  0  0  0  0  0  0  0  0  0
   10.5472   99.6486   55.6755 C   0  0  0  0  0  0  0  0  0  0  0  0
   10.2260   98.9764   56.7558 N   0  0  0  0  0  0  0  0  0  0  0  0
   11.2135   98.6238   57.6395 C   0  0  0  0  0  0  0  0  0  0  0  0
   11.0917   97.9377   58.7619 N   0  0  0  0  0  0  0  0  0  0  0  0
   12.3123   97.7634   59.3876 C   0  0  0  0  0  0  0  0  0  0  0  0
   12.4623   96.9809   60.5725 C   0  0  0  0  0  0  0  0  0  0  0  0
   11.6183   96.3128   61.2903 C   0  0  0  0  0  0  0  0  0  0  0  0
   12.0191   95.5426   62.5222 C   0  0  0  0  0  0  0  0  0  0  0  0
   13.3837   95.1468   62.5359 N   0  0  0  0  0  0  0  0  0  0  0  0
   14.0833   94.3826   63.4446 C   0  0  0  0  0  0  0  0  0  0  0  0
   15.3295   94.7797   63.6385 O   0  0  0  0  0  0  0  0  0  0  0  0
   13.7444   93.2198   64.2500 C   0  0  0  0  0  0  0  0  0  0  0  0
   12.7953   92.1520   63.7006 C   0  0  0  0  0  0  0  0  0  0  0  0
   12.9423   92.1376   62.2917 F   0  0  0  0  0  0  0  0  0  0  0  0
   11.5209   92.3202   64.0544 F   0  0  0  0  0  0  0  0  0  0  0  0
   13.2697   90.9196   64.1712 F   0  0  0  0  0  0  0  0  0  0  0  0
   13.5748   93.4102   65.7405 C   0  0  0  0  0  0  0  0  0  0  0  0
   14.8144   92.7482   65.2327 C   0  0  0  0  0  0  0  0  0  0  0  0
   14.2017   95.5693   61.3416 C   0  0  0  0  0  0  0  0  0  0  0  0
   13.8593   97.0228   61.1954 C   0  0  0  0  0  0  0  0  0  0  0  0
   13.1956   98.3968   58.5516 C   0  0  0  0  0  0  0  0  0  0  0  0
   12.5221   98.9376   57.4543 C   0  0  0  0  0  0  0  0  0  0  0  0
  1  2  1  0
  2  3  1  0
  3  4  2  0
  4  5  1  0
  5  6  2  0
  6  7  1  0
  6  8  1  0
  8  9  2  0
  9 10  1  0
 10 11  2  0
 11 12  1  0
 12 13  2  0
 13 14  1  0
 14 15  1  0
 15 16  1  0
 16 17  1  0
 17 18  2  0
 18 19  1  0
 19 20  1  0
 20 21  1  0
 21 22  2  0
 21 23  1  0
 23 24  1  0
 24 25  1  0
 24 26  1  0
 24 27  1  0
 23 28  1  0
 28 29  1  0
 20 30  1  0
 30 31  1  0
 16 32  2  0
 32 33  1  0
  9  3  1  0
 33 10  1  0
 33 14  2  0
 31 17  1  0
 29 23  1  0
M  END
$$$$
