
     RDKit          3D

 22 24  0  0  0  0  0  0  0  0999 V2000
   39.4715   82.1330   52.5169 O   0  0  0  0  0  0  0  0  0  0  0  0
   38.9039   81.0405   52.3705 C   0  0  0  0  0  0  0  0  0  0  0  0
   38.4043   80.7466   51.0783 N   0  0  0  0  0  0  0  0  0  0  0  0
   38.4137   81.6623   49.9875 C   0  0  0  0  0  0  0  0  0  0  0  0
   37.4461   82.7809   50.0835 C   0  0  0  0  0  0  0  0  0  0  0  0
   36.1241   82.3118   49.7302 N   0  0  0  0  0  0  0  0  0  0  0  0
   34.9265   82.6739   50.4001 C   0  0  0  0  0  0  0  0  0  0  0  0
   34.9630   83.5054   51.3091 O   0  0  0  0  0  0  0  0  0  0  0  0
   33.6696   82.1018   50.0527 N   0  0  0  0  0  0  0  0  0  0  0  0
   33.4005   81.1956   48.9647 C   0  0  0  0  0  0  0  0  0  0  0  0
   31.9800   81.4862   48.6044 C   0  0  0  0  0  0  0  0  0  0  0  0
   31.3857   81.9476   49.8731 C   0  0  0  0  0  0  0  0  0  0  0  0
   30.0876   82.0678   50.3161 C   0  0  0  0  0  0  0  0  0  0  0  0
   29.7834   82.5374   51.5769 C   0  0  0  0  0  0  0  0  0  0  0  0
   30.8062   82.8938   52.4102 C   0  0  0  0  0  0  0  0  0  0  0  0
   32.0983   82.7766   51.9756 C   0  0  0  0  0  0  0  0  0  0  0  0
   32.4221   82.3032   50.7029 C   0  0  0  0  0  0  0  0  0  0  0  0
   38.7596   80.0962   53.4945 C   0  0  0  0  0  0  0  0  0  0  0  0
   38.2546   78.8270   53.4732 C   0  0  0  0  0  0  0  0  0  0  0  0
   38.3092   78.3064   54.7535 C   0  0  0  0  0  0  0  0  0  0  0  0
   38.8704   79.3387   55.5120 C   0  0  0  0  0  0  0  0  0  0  0  0
   39.1061   80.3473   54.7130 O   0  0  0  0  0  0  0  0  0  0  0  0
  1  2  2  0
  2  3  1  0
  3  4  1  0
  4  5  1  0
  5  6  1  0
  6  7  1  0
  7  8  2  0
  7  9  1  0
  9 10  1  0
 10 11  1  0
 11 12  1  0
 12 13  2  0
 13 14  1  0
 14 15  2  0
 15 16  1  0
 16 17  2  0
  2 18  1  0
 18 19  2  0
 19 20  1  0
 20 21  2  0
 21 22  1  0
 17  9  1  0
 22 18  1  0
 17 12  1  0
M  END
$$$$
