
     RDKit          3D

 34 39  0  0  0  0  0  0  0  0999 V2000
   21.4802   52.5581   18.4944 C   0  0  0  0  0  0  0  0  0  0  0  0
   20.6130   51.8290   17.6780 O   0  0  0  0  0  0  0  0  0  0  0  0
   19.4596   52.5076   17.3924 C   0  0  0  0  0  0  0  0  0  0  0  0
   18.6720   51.6350   16.3819 C   0  0  0  0  0  0  0  0  0  0  0  0
   17.4310   52.2283   16.0712 N   0  0  0  0  0  0  0  0  0  0  0  0
   17.2616   53.0059   14.9442 C   0  0  0  0  0  0  0  0  0  0  0  0
   17.0646   54.4604   14.9975 C   0  0  1  0  0  0  0  0  0  0  0  0
   18.0835   55.0769   14.0061 C   0  0  0  0  0  0  0  0  0  0  0  0
   17.6856   56.4771   13.6095 C   0  0  0  0  0  0  0  0  0  0  0  0
   16.4268   56.5339   12.8146 C   0  0  2  0  0  0  0  0  0  0  0  0
   15.5715   57.7059   13.2075 C   0  0  0  0  0  0  0  0  0  0  0  0
   15.8145   58.6274   14.1760 N   0  0  0  0  0  0  0  0  0  0  0  0
   14.8594   59.5053   14.2466 N   0  0  0  0  0  0  0  0  0  0  0  0
   13.9307   59.2185   13.3333 N   0  0  0  0  0  0  0  0  0  0  0  0
   12.7621   59.7958   12.9903 C   0  0  0  0  0  0  0  0  0  0  0  0
   11.9825   59.3109   12.0128 N   0  0  0  0  0  0  0  0  0  0  0  0
   12.3600   58.1995   11.3269 C   0  0  0  0  0  0  0  0  0  0  0  0
   11.8078   57.5024   10.3239 N   0  0  0  0  0  0  0  0  0  0  0  0
   12.6291   56.4844   10.0319 C   0  0  0  0  0  0  0  0  0  0  0  0
   13.7444   56.5254   10.8715 C   0  0  0  0  0  0  0  0  0  0  0  0
   13.5527   57.6160   11.6806 C   0  0  0  0  0  0  0  0  0  0  0  0
   14.3605   58.1088   12.6863 C   0  0  0  0  0  0  0  0  0  0  0  0
   15.6107   55.2847   13.2177 C   0  0  0  0  0  0  0  0  0  0  0  0
   15.7741   55.0957   14.7077 C   0  0  0  0  0  0  0  0  0  0  0  0
   16.2995   51.7082   16.7736 C   0  0  1  0  0  0  0  0  0  0  0  0
   15.0394   51.6996   15.9664 C   0  0  0  0  0  0  0  0  0  0  0  0
   14.5580   50.3561   15.4976 C   0  0  0  0  0  0  0  0  0  0  0  0
   15.7872   49.4902   15.2253 C   0  0  0  0  0  0  0  0  0  0  0  0
   16.3365   49.2269   16.5673 C   0  0  0  0  0  0  0  0  0  0  0  0
   16.5726   47.9660   17.0329 C   0  0  0  0  0  0  0  0  0  0  0  0
   17.0786   47.7678   18.3309 C   0  0  0  0  0  0  0  0  0  0  0  0
   17.3095   48.9077   19.0723 C   0  0  0  0  0  0  0  0  0  0  0  0
   17.0635   50.1384   18.5781 N   0  0  0  0  0  0  0  0  0  0  0  0
   16.5806   50.3633   17.3431 C   0  0  0  0  0  0  0  0  0  0  0  0
  1  2  1  0
  2  3  1  0
  3  4  1  0
  4  5  1  0
  5  6  1  0
  7  6  1  6
  7  8  1  0
  8  9  1  0
  9 10  1  0
 10 11  1  1
 11 12  1  0
 12 13  2  0
 13 14  1  0
 14 15  1  0
 15 16  2  0
 16 17  1  0
 17 18  1  0
 18 19  1  0
 19 20  2  0
 20 21  1  0
 21 22  1  0
 10 23  1  0
 23 24  1  0
 25  5  1  6
 25 26  1  0
 26 27  1  0
 27 28  1  0
 28 29  1  0
 29 30  2  0
 30 31  1  0
 31 32  2  0
 32 33  1  0
 33 34  2  0
 24  7  1  0
 34 25  1  0
 22 11  2  0
 34 29  1  0
 22 14  1  0
 21 17  2  0
M  END
$$$$
