
     RDKit          3D

 23 25  0  0  0  0  0  0  0  0999 V2000
   15.5240   92.4976   62.8514 C   0  0  0  0  0  0  0  0  0  0  0  0
   14.8146   93.5341   62.2540 O   0  0  0  0  0  0  0  0  0  0  0  0
   13.5734   94.0024   62.6335 C   0  0  0  0  0  0  0  0  0  0  0  0
   12.7926   93.3202   63.5479 C   0  0  0  0  0  0  0  0  0  0  0  0
   11.5403   93.7826   63.9380 C   0  0  0  0  0  0  0  0  0  0  0  0
   11.0283   94.9512   63.4202 C   0  0  0  0  0  0  0  0  0  0  0  0
   11.8017   95.6340   62.5097 C   0  0  0  0  0  0  0  0  0  0  0  0
   11.3200   96.8747   61.9235 C   0  0  0  0  0  0  0  0  0  0  0  0
   11.2344   98.0802   62.5534 N   0  0  0  0  0  0  0  0  0  0  0  0
   10.7536   98.9683   61.7010 N   0  0  0  0  0  0  0  0  0  0  0  0
   10.5163   98.3731   60.5090 C   0  0  0  0  0  0  0  0  0  0  0  0
    9.8685   99.1220   59.0185 S   0  0  0  0  0  0  0  0  0  0  0  0
   11.0249  100.4183   58.5088 C   0  0  0  0  0  0  0  0  0  0  0  0
   10.2633  101.4133   57.6629 C   0  0  0  0  0  0  0  0  0  0  0  0
   12.2054   99.8575   57.8088 C   0  0  0  0  0  0  0  0  0  0  0  0
   12.4965   98.6454   57.7533 O   0  0  0  0  0  0  0  0  0  0  0  0
   13.0641  100.7906   57.1525 N   0  0  0  0  0  0  0  0  0  0  0  0
   14.3329  100.3905   56.5772 C   0  0  0  0  0  0  0  0  0  0  0  0
   15.1712  101.4579   55.9176 C   0  0  0  0  0  0  0  0  0  0  0  0
   14.4966  100.4186   55.0750 C   0  0  0  0  0  0  0  0  0  0  0  0
   10.8701   97.0914   60.6671 N   0  0  0  0  0  0  0  0  0  0  0  0
   10.7751   96.0829   59.6135 C   0  0  0  0  0  0  0  0  0  0  0  0
   13.0433   95.1777   62.1214 C   0  0  0  0  0  0  0  0  0  0  0  0
  1  2  1  0
  2  3  1  0
  3  4  2  0
  4  5  1  0
  5  6  2  0
  6  7  1  0
  7  8  1  0
  8  9  2  0
  9 10  1  0
 10 11  2  0
 11 12  1  0
 12 13  1  0
 13 14  1  0
 13 15  1  0
 15 16  2  0
 15 17  1  0
 17 18  1  0
 18 19  1  0
 19 20  1  0
 11 21  1  0
 21 22  1  0
  7 23  2  0
 23  3  1  0
 21  8  1  0
 20 18  1  0
M  END
$$$$
