
     RDKit          3D

 21 23  0  0  0  0  0  0  0  0999 V2000
   13.8667   49.7749   17.1862 C   0  0  0  0  0  0  0  0  0  0  0  0
   15.1105   49.0017   17.5894 C   0  0  0  0  0  0  0  0  0  0  0  0
   16.0904   49.1272   16.5576 N   0  0  0  0  0  0  0  0  0  0  0  0
   16.2523   50.3755   15.8919 C   0  0  0  0  0  0  0  0  0  0  0  0
   17.5098   50.7937   15.5110 C   0  0  0  0  0  0  0  0  0  0  0  0
   17.6760   51.9912   14.8585 C   0  0  0  0  0  0  0  0  0  0  0  0
   16.6281   52.8166   14.5572 C   0  0  0  0  0  0  0  0  0  0  0  0
   15.3779   52.3838   14.9447 C   0  0  0  0  0  0  0  0  0  0  0  0
   15.1782   51.1799   15.6046 C   0  0  0  0  0  0  0  0  0  0  0  0
   14.5409   53.3173   14.5595 O   0  0  0  0  0  0  0  0  0  0  0  0
   15.1537   54.3097   13.9585 C   0  0  0  0  0  0  0  0  0  0  0  0
   14.7307   55.5032   13.3835 C   0  0  0  0  0  0  0  0  0  0  0  0
   15.6635   56.3478   12.8195 C   0  0  0  0  0  0  0  0  0  0  0  0
   17.0093   56.0563   12.8014 C   0  0  0  0  0  0  0  0  0  0  0  0
   17.4440   54.8813   13.3652 C   0  0  0  0  0  0  0  0  0  0  0  0
   16.5052   54.0424   13.9269 C   0  0  0  0  0  0  0  0  0  0  0  0
   15.6643   49.4865   18.8724 C   0  0  0  0  0  0  0  0  0  0  0  0
   15.4905   50.6957   19.1708 O   0  0  0  0  0  0  0  0  0  0  0  0
   16.3761   48.6333   19.7612 N   0  0  0  0  0  0  0  0  0  0  0  0
   17.0112   49.2045   20.9239 C   0  0  0  0  0  0  0  0  0  0  0  0
   16.4466   47.2186   19.4800 C   0  0  0  0  0  0  0  0  0  0  0  0
  1  2  1  0
  2  3  1  0
  3  4  1  0
  4  5  2  0
  5  6  1  0
  6  7  2  0
  7  8  1  0
  8  9  2  0
  8 10  1  0
 10 11  1  0
 11 12  2  0
 12 13  1  0
 13 14  2  0
 14 15  1  0
 15 16  2  0
  2 17  1  0
 17 18  2  0
 17 19  1  0
 19 20  1  0
 19 21  1  0
  9  4  1  0
 16 11  1  0
 16  7  1  0
M  END
$$$$
