
     RDKit          3D

 27 29  0  0  0  0  0  0  0  0999 V2000
   31.0231   81.8709   53.1989 C   0  0  0  0  0  0  0  0  0  0  0  0
   31.2795   82.4245   51.8328 C   0  0  0  0  0  0  0  0  0  0  0  0
   30.2357   82.7854   51.0063 C   0  0  0  0  0  0  0  0  0  0  0  0
   30.4792   83.2949   49.7442 C   0  0  0  0  0  0  0  0  0  0  0  0
   29.3207   83.6690   48.8888 C   0  0  0  0  0  0  0  0  0  0  0  0
   31.7863   83.4239   49.3557 C   0  0  0  0  0  0  0  0  0  0  0  0
   32.8633   83.0783   50.1428 C   0  0  0  0  0  0  0  0  0  0  0  0
   34.2731   83.2170   49.7304 C   0  0  0  0  0  0  0  0  0  0  0  0
   35.2102   82.4444   50.5206 N   0  0  0  0  0  0  0  0  0  0  0  0
   36.6237   82.5479   50.4135 C   0  0  0  0  0  0  0  0  0  0  0  0
   37.0555   82.3475   49.2197 O   0  0  0  0  0  0  0  0  0  0  0  0
   37.5582   82.8514   51.5071 C   0  0  0  0  0  0  0  0  0  0  0  0
   38.9514   83.1677   51.0461 C   0  0  0  0  0  0  0  0  0  0  0  0
   39.7690   81.9642   50.6925 C   0  0  0  0  0  0  0  0  0  0  0  0
   39.6170   80.9349   51.7318 C   0  0  0  0  0  0  0  0  0  0  0  0
   40.2798   79.8761   51.6424 O   0  0  0  0  0  0  0  0  0  0  0  0
   38.7473   81.1194   52.8146 N   0  0  0  0  0  0  0  0  0  0  0  0
   39.0584   80.5749   54.1400 C   0  0  0  0  0  0  0  0  0  0  0  0
   38.6787   79.1598   54.2858 C   0  0  0  0  0  0  0  0  0  0  0  0
   39.3477   78.2615   55.0867 C   0  0  0  0  0  0  0  0  0  0  0  0
   38.9722   76.9533   55.1915 C   0  0  0  0  0  0  0  0  0  0  0  0
   37.8879   76.4931   54.4803 C   0  0  0  0  0  0  0  0  0  0  0  0
   37.4817   75.1890   54.5615 F   0  0  0  0  0  0  0  0  0  0  0  0
   37.2171   77.3951   53.6772 C   0  0  0  0  0  0  0  0  0  0  0  0
   37.5918   78.7146   53.5679 C   0  0  0  0  0  0  0  0  0  0  0  0
   37.4909   81.8637   52.6305 C   0  0  0  0  0  0  0  0  0  0  0  0
   32.6025   82.5723   51.3975 C   0  0  0  0  0  0  0  0  0  0  0  0
  1  2  1  0
  2  3  2  0
  3  4  1  0
  4  5  1  0
  4  6  2  0
  6  7  1  0
  7  8  1  0
  8  9  1  0
  9 10  1  0
 10 11  2  0
 10 12  1  0
 12 13  1  0
 13 14  1  0
 14 15  1  0
 15 16  2  0
 15 17  1  0
 17 18  1  0
 18 19  1  0
 19 20  2  0
 20 21  1  0
 21 22  2  0
 22 23  1  0
 22 24  1  0
 24 25  2  0
 17 26  1  0
  7 27  2  0
 27  2  1  0
 26 12  1  0
 25 19  1  0
M  END
$$$$
