
     RDKit          3D

 16 18  0  0  0  0  0  0  0  0999 V2000
   15.8902   52.4225   15.3074 C   0  0  0  0  0  0  0  0  0  0  0  0
   16.6032   53.4925   15.0598 C   0  0  0  0  0  0  0  0  0  0  0  0
   16.3439   54.3950   13.9441 C   0  0  0  0  0  0  0  0  0  0  0  0
   15.7371   55.5963   14.1193 C   0  0  0  0  0  0  0  0  0  0  0  0
   15.5201   56.4089   13.0099 C   0  0  0  0  0  0  0  0  0  0  0  0
   14.8951   57.6710   13.1109 N   0  0  0  0  0  0  0  0  0  0  0  0
   15.1008   58.6471   14.1544 C   0  0  0  0  0  0  0  0  0  0  0  0
   14.7418   59.9792   13.5602 C   0  0  2  0  0  0  0  0  0  0  0  0
   13.3158   60.4057   13.6746 C   0  0  0  0  0  0  0  0  0  0  0  0
   13.3210   60.6572   12.2382 N   0  0  0  0  0  0  0  0  0  0  0  0
   14.3756   59.6797   12.1275 C   0  0  2  0  0  0  0  0  0  0  0  0
   13.9316   58.2394   12.2012 C   0  0  0  0  0  0  0  0  0  0  0  0
   15.9420   55.9402   11.7665 C   0  0  0  0  0  0  0  0  0  0  0  0
   16.5485   54.7278   11.6278 C   0  0  0  0  0  0  0  0  0  0  0  0
   17.0006   54.2253   10.2961 C   0  0  0  0  0  0  0  0  0  0  0  0
   16.7401   53.9787   12.7040 N   0  0  0  0  0  0  0  0  0  0  0  0
  1  2  2  0
  2  3  1  0
  3  4  2  0
  4  5  1  0
  5  6  1  0
  6  7  1  0
  8  7  1  1
  8  9  1  0
  9 10  1  0
 10 11  1  0
 11 12  1  1
  5 13  2  0
 13 14  1  0
 14 15  1  0
 14 16  2  0
 16  3  1  0
 12  6  1  0
 11  8  1  0
M  END
$$$$
