
     RDKit          3D

 27 30  0  0  0  0  0  0  0  0999 V2000
   18.5599   48.7102   17.0140 N   0  0  0  0  0  0  0  0  0  0  0  0
   17.7122   49.2723   16.4329 C   0  0  0  0  0  0  0  0  0  0  0  0
   16.6725   49.9592   15.6920 C   0  0  0  0  0  0  0  0  0  0  0  0
   16.6809   51.3799   16.0086 N   0  0  0  0  0  0  0  0  0  0  0  0
   15.4374   52.0040   15.5960 C   0  0  0  0  0  0  0  0  0  0  0  0
   15.5407   52.5076   14.1708 C   0  0  0  0  0  0  0  0  0  0  0  0
   16.4711   53.6847   14.1205 C   0  0  0  0  0  0  0  0  0  0  0  0
   15.7481   54.8824   14.7008 C   0  0  0  0  0  0  0  0  0  0  0  0
   14.8942   55.5144   13.7217 N   0  0  0  0  0  0  0  0  0  0  0  0
   14.5584   55.0546   12.5311 N   0  0  0  0  0  0  0  0  0  0  0  0
   13.7673   55.8745   11.8993 N   0  0  0  0  0  0  0  0  0  0  0  0
   13.5716   56.9255   12.7113 C   0  0  0  0  0  0  0  0  0  0  0  0
   12.7524   58.1306   12.4730 C   0  0  0  0  0  0  0  0  0  0  0  0
   12.0501   58.3388   11.3947 C   0  0  0  0  0  0  0  0  0  0  0  0
   11.2581   59.9544   11.6380 S   0  0  0  0  0  0  0  0  0  0  0  0
   12.1069   60.0936   13.3539 C   0  0  0  0  0  0  0  0  0  0  0  0
   11.8662   61.2570   14.1339 N   0  0  0  0  0  0  0  0  0  0  0  0
   12.6780   59.1146   13.3751 N   0  0  0  0  0  0  0  0  0  0  0  0
   14.2775   56.6763   13.8255 N   0  0  0  0  0  0  0  0  0  0  0  0
   17.0034   53.9781   12.7771 C   0  0  0  0  0  0  0  0  0  0  0  0
   18.0466   54.8495   12.6073 C   0  0  0  0  0  0  0  0  0  0  0  0
   18.5248   55.1093   11.3249 C   0  0  0  0  0  0  0  0  0  0  0  0
   17.9300   54.4763   10.2463 C   0  0  0  0  0  0  0  0  0  0  0  0
   16.8845   53.6060   10.4420 C   0  0  0  0  0  0  0  0  0  0  0  0
   16.4011   53.3405   11.7145 C   0  0  0  0  0  0  0  0  0  0  0  0
   17.6475   53.3988   15.0356 C   0  0  0  0  0  0  0  0  0  0  0  0
   17.8188   51.9356   15.3022 C   0  0  0  0  0  0  0  0  0  0  0  0
  1  2  3  0
  2  3  1  0
  3  4  1  0
  4  5  1  0
  5  6  1  0
  6  7  1  0
  7  8  1  0
  8  9  1  0
  9 10  1  0
 10 11  2  0
 11 12  1  0
 12 13  1  0
 13 14  2  0
 14 15  1  0
 15 16  1  0
 16 17  1  0
 16 18  2  0
 12 19  2  0
  7 20  1  0
 20 21  2  0
 21 22  1  0
 22 23  2  0
 23 24  1  0
 24 25  2  0
  7 26  1  0
 26 27  1  0
 27  4  1  0
 19  9  1  0
 25 20  1  0
 18 13  1  0
M  END
$$$$
