
     RDKit          3D

 21 23  0  0  0  0  0  0  0  0999 V2000
   34.9600   81.9982   49.4307 O   0  0  0  0  0  0  0  0  0  0  0  0
   34.9917   81.6859   50.6285 C   0  0  0  0  0  0  0  0  0  0  0  0
   33.7683   81.2893   51.2227 N   0  0  0  0  0  0  0  0  0  0  0  0
   32.5007   81.2230   50.5802 C   0  0  0  0  0  0  0  0  0  0  0  0
   31.3516   81.7163   51.3507 C   0  0  0  0  0  0  0  0  0  0  0  0
   31.5890   82.3810   52.5306 C   0  0  0  0  0  0  0  0  0  0  0  0
   30.5549   82.8896   53.3144 C   0  0  0  0  0  0  0  0  0  0  0  0
   29.2598   82.7302   52.9112 C   0  0  0  0  0  0  0  0  0  0  0  0
   28.2339   83.2266   53.6745 F   0  0  0  0  0  0  0  0  0  0  0  0
   29.0285   82.0645   51.7306 C   0  0  0  0  0  0  0  0  0  0  0  0
   27.3549   81.8675   51.2235 Cl  0  0  0  0  0  0  0  0  0  0  0  0
   30.0398   81.5593   50.9505 C   0  0  0  0  0  0  0  0  0  0  0  0
   36.2615   81.7388   51.3612 C   0  0  0  0  0  0  0  0  0  0  0  0
   36.3599   81.6809   52.7193 C   0  0  0  0  0  0  0  0  0  0  0  0
   37.5699   81.7305   53.3919 C   0  0  0  0  0  0  0  0  0  0  0  0
   38.7332   81.8426   52.6864 C   0  0  0  0  0  0  0  0  0  0  0  0
   38.6760   81.9040   51.3116 C   0  0  0  0  0  0  0  0  0  0  0  0
   39.6687   82.0125   50.4318 N   0  0  0  0  0  0  0  0  0  0  0  0
   39.1235   82.0332   49.2124 C   0  0  0  0  0  0  0  0  0  0  0  0
   37.7510   81.9356   49.3203 C   0  0  0  0  0  0  0  0  0  0  0  0
   37.4445   81.8517   50.6618 C   0  0  0  0  0  0  0  0  0  0  0  0
  1  2  2  0
  2  3  1  0
  3  4  1  0
  4  5  1  0
  5  6  2  0
  6  7  1  0
  7  8  2  0
  8  9  1  0
  8 10  1  0
 10 11  1  0
 10 12  2  0
  2 13  1  0
 13 14  2  0
 14 15  1  0
 15 16  2  0
 16 17  1  0
 17 18  1  0
 18 19  1  0
 19 20  2  0
 20 21  1  0
 12  5  1  0
 21 13  1  0
 21 17  2  0
M  END
$$$$
