
     RDKit          3D

 17 18  0  0  0  0  0  0  0  0999 V2000
   35.4886   81.8759   53.4775 C   0  0  0  0  0  0  0  0  0  0  0  0
   35.0753   81.9307   52.0818 N   0  0  0  0  0  0  0  0  0  0  0  0
   35.8419   81.8682   50.9852 C   0  0  0  0  0  0  0  0  0  0  0  0
   37.3139   81.7196   50.9247 C   0  0  0  0  0  0  0  0  0  0  0  0
   37.7639   82.1413   49.5382 C   0  0  0  0  0  0  0  0  0  0  0  0
   37.7202   80.2656   51.0676 C   0  0  0  0  0  0  0  0  0  0  0  0
   38.0663   82.5322   51.9243 C   0  0  0  0  0  0  0  0  0  0  0  0
   35.0456   81.9607   49.8770 N   0  0  0  0  0  0  0  0  0  0  0  0
   33.7636   82.0828   50.2603 C   0  0  0  0  0  0  0  0  0  0  0  0
   32.5645   82.2100   49.5639 C   0  0  0  0  0  0  0  0  0  0  0  0
   32.5770   82.2303   47.8098 Cl  0  0  0  0  0  0  0  0  0  0  0  0
   31.4037   82.3159   50.2947 C   0  0  0  0  0  0  0  0  0  0  0  0
   31.3883   82.3004   51.6786 C   0  0  0  0  0  0  0  0  0  0  0  0
   30.1558   82.4135   52.4051 C   0  0  0  0  0  0  0  0  0  0  0  0
   29.1680   82.4975   53.0050 N   0  0  0  0  0  0  0  0  0  0  0  0
   32.6046   82.1723   52.3158 C   0  0  0  0  0  0  0  0  0  0  0  0
   33.7998   82.0623   51.6375 C   0  0  0  0  0  0  0  0  0  0  0  0
  1  2  1  0
  2  3  1  0
  3  4  1  0
  4  5  1  0
  4  6  1  0
  4  7  1  0
  3  8  2  0
  8  9  1  0
  9 10  2  0
 10 11  1  0
 10 12  1  0
 12 13  2  0
 13 14  1  0
 14 15  3  0
 13 16  1  0
 16 17  2  0
 17  2  1  0
 17  9  1  0
M  END
$$$$
