
     RDKit          3D

 19 20  0  0  0  0  0  0  0  0999 V2000
   -2.1777   67.2221   32.2406 C   0  0  0  0  0  0  0  0  0  0  0  0
   -3.5389   66.8278   32.0222 N   0  0  0  0  0  0  0  0  0  0  0  0
   -4.5813   67.8021   31.9469 C   0  0  0  0  0  0  0  0  0  0  0  0
   -3.8671   65.4321   31.8751 C   0  0  0  0  0  0  0  0  0  0  0  0
   -2.9258   64.6156   31.9074 O   0  0  0  0  0  0  0  0  0  0  0  0
   -5.2692   65.0291   31.6958 C   0  0  0  0  0  0  0  0  0  0  0  0
   -5.5881   63.9488   30.8584 N   0  0  0  0  0  0  0  0  0  0  0  0
   -5.1711   62.6469   31.1197 C   0  0  0  0  0  0  0  0  0  0  0  0
   -6.1842   61.5880   30.8516 C   0  0  0  0  0  0  0  0  0  0  0  0
   -5.2929   60.3684   30.6967 C   0  0  0  0  0  0  0  0  0  0  0  0
   -5.6907   59.1701   30.7483 O   0  0  0  0  0  0  0  0  0  0  0  0
   -3.9740   60.7932   30.4903 N   0  0  0  0  0  0  0  0  0  0  0  0
   -2.8358   59.8922   30.4939 C   0  0  0  0  0  0  0  0  0  0  0  0
   -1.5441   60.3731   30.4818 C   0  0  0  0  0  0  0  0  0  0  0  0
   -0.4431   59.5397   30.4852 C   0  0  0  0  0  0  0  0  0  0  0  0
   -0.6072   58.1722   30.5009 C   0  0  0  0  0  0  0  0  0  0  0  0
   -1.9009   57.6856   30.5132 C   0  0  0  0  0  0  0  0  0  0  0  0
   -2.9990   58.5239   30.5097 C   0  0  0  0  0  0  0  0  0  0  0  0
   -3.9592   62.2135   30.2827 C   0  0  0  0  0  0  0  0  0  0  0  0
  1  2  1  0
  2  3  1  0
  2  4  1  0
  4  5  2  0
  4  6  1  0
  6  7  1  0
  7  8  1  0
  8  9  1  0
  9 10  1  0
 10 11  2  0
 10 12  1  0
 12 13  1  0
 13 14  2  0
 14 15  1  0
 15 16  2  0
 16 17  1  0
 17 18  2  0
 12 19  1  0
 19  8  1  0
 18 13  1  0
M  END
$$$$
