
     RDKit          3D

 24 25  0  0  0  0  0  0  0  0999 V2000
   13.9140   49.9058   17.5863 C   0  0  0  0  0  0  0  0  0  0  0  0
   14.8528   48.9000   16.9691 C   0  0  0  0  0  0  0  0  0  0  0  0
   14.1483   48.1838   15.8587 C   0  0  0  0  0  0  0  0  0  0  0  0
   15.4795   47.9963   17.9981 C   0  0  0  0  0  0  0  0  0  0  0  0
   15.4752   48.3909   19.3963 C   0  0  0  0  0  0  0  0  0  0  0  0
   16.0862   47.5362   20.4048 C   0  0  0  0  0  0  0  0  0  0  0  0
   15.3020   46.7394   21.1753 C   0  0  0  0  0  0  0  0  0  0  0  0
   15.8302   45.9230   22.1336 C   0  0  0  0  0  0  0  0  0  0  0  0
   17.2067   45.8933   22.3405 C   0  0  0  0  0  0  0  0  0  0  0  0
   17.9887   46.7103   21.5477 C   0  0  0  0  0  0  0  0  0  0  0  0
   17.4376   47.5228   20.5907 C   0  0  0  0  0  0  0  0  0  0  0  0
   16.0177   49.5670   16.3859 N   0  0  0  0  0  0  0  0  0  0  0  0
   15.7593   50.7018   15.5964 C   0  0  0  0  0  0  0  0  0  0  0  0
   17.1263   51.2609   15.1722 C   0  0  2  0  0  0  0  0  0  0  0  0
   18.1539   50.7841   15.9778 O   0  0  0  0  0  0  0  0  0  0  0  0
   17.0800   52.7911   15.2097 C   0  0  0  0  0  0  0  0  0  0  0  0
   16.2488   53.2986   14.2091 O   0  0  0  0  0  0  0  0  0  0  0  0
   16.6917   54.1341   13.2639 N   0  0  0  0  0  0  0  0  0  0  0  0
   16.2396   55.2346   12.8361 C   0  0  0  0  0  0  0  0  0  0  0  0
   16.7631   56.0267   11.7046 C   0  0  0  0  0  0  0  0  0  0  0  0
   16.1147   57.4210   11.7662 C   0  0  0  0  0  0  0  0  0  0  0  0
   14.6138   57.3028   11.5904 C   0  0  0  0  0  0  0  0  0  0  0  0
   14.0569   56.2382   12.4952 C   0  0  0  0  0  0  0  0  0  0  0  0
   15.0441   55.8000   13.5564 C   0  0  0  0  0  0  0  0  0  0  0  0
  1  2  1  0
  2  3  1  0
  2  4  1  0
  4  5  1  0
  5  6  1  0
  6  7  2  0
  7  8  1  0
  8  9  2  0
  9 10  1  0
 10 11  2  0
  2 12  1  0
 12 13  1  0
 13 14  1  0
 14 15  1  1
 14 16  1  0
 16 17  1  0
 17 18  1  0
 18 19  2  3
 19 20  1  0
 20 21  1  0
 21 22  1  0
 22 23  1  0
 23 24  1  0
 11  6  1  0
 24 19  1  0
M  END
$$$$
