
     RDKit          3D

 22 24  0  0  0  0  0  0  0  0999 V2000
   10.8929  102.0273   57.8704 N   0  0  0  0  0  0  0  0  0  0  0  0
   11.6481  100.8319   58.0037 C   0  0  0  0  0  0  0  0  0  0  0  0
   12.5989  100.4867   57.0700 C   0  0  0  0  0  0  0  0  0  0  0  0
   13.3118   99.3207   57.2346 C   0  0  0  0  0  0  0  0  0  0  0  0
   13.0549   98.5054   58.3514 C   0  0  0  0  0  0  0  0  0  0  0  0
   14.0878   97.1053   58.5294 Cl  0  0  0  0  0  0  0  0  0  0  0  0
   12.1142   98.8370   59.2774 C   0  0  0  0  0  0  0  0  0  0  0  0
   11.8759   98.0648   60.3698 C   0  0  0  0  0  0  0  0  0  0  0  0
   12.3885   96.7440   60.6530 C   0  0  0  0  0  0  0  0  0  0  0  0
   13.5578   96.3787   60.4762 O   0  0  0  0  0  0  0  0  0  0  0  0
   11.5257   95.7157   61.1869 N   0  0  0  0  0  0  0  0  0  0  0  0
   12.0095   94.6209   61.9582 C   0  0  0  0  0  0  0  0  0  0  0  0
   11.1462   93.7739   62.6229 C   0  0  0  0  0  0  0  0  0  0  0  0
   11.5667   92.7122   63.3735 C   0  0  0  0  0  0  0  0  0  0  0  0
   12.9155   92.4465   63.4931 C   0  0  0  0  0  0  0  0  0  0  0  0
   13.7912   93.2993   62.8236 C   0  0  0  0  0  0  0  0  0  0  0  0
   15.1415   93.0704   62.9162 F   0  0  0  0  0  0  0  0  0  0  0  0
   13.3653   94.3639   62.0712 C   0  0  0  0  0  0  0  0  0  0  0  0
   10.9298   98.5133   61.2616 N   0  0  0  0  0  0  0  0  0  0  0  0
   10.2388   99.6161   61.1435 C   0  0  0  0  0  0  0  0  0  0  0  0
   10.4511  100.4149   60.0491 C   0  0  0  0  0  0  0  0  0  0  0  0
   11.3960  100.0320   59.0978 C   0  0  0  0  0  0  0  0  0  0  0  0
  1  2  1  0
  2  3  2  0
  3  4  1  0
  4  5  2  0
  5  6  1  0
  5  7  1  0
  7  8  2  0
  8  9  1  0
  9 10  2  0
  9 11  1  0
 11 12  1  0
 12 13  2  0
 13 14  1  0
 14 15  2  0
 15 16  1  0
 16 17  1  0
 16 18  2  0
  8 19  1  0
 19 20  2  0
 20 21  1  0
 21 22  2  0
 22  2  1  0
 22  7  1  0
 18 12  1  0
M  END
$$$$
