
     RDKit          3D

 22 24  0  0  0  0  0  0  0  0999 V2000
   35.3805   82.0860   49.0181 O   0  0  0  0  0  0  0  0  0  0  0  0
   34.2979   81.8944   48.4112 C   0  0  0  0  0  0  0  0  0  0  0  0
   34.2978   80.9573   47.3408 N   0  0  0  0  0  0  0  0  0  0  0  0
   35.4287   80.2189   46.8600 C   0  0  0  0  0  0  0  0  0  0  0  0
   35.8484   80.5239   45.4481 C   0  0  0  0  0  0  0  0  0  0  0  0
   36.9893   79.5772   45.0883 C   0  0  0  0  0  0  0  0  0  0  0  0
   37.7139   80.0422   43.9939 O   0  0  0  0  0  0  0  0  0  0  0  0
   38.2988   81.2782   44.2392 C   0  0  0  0  0  0  0  0  0  0  0  0
   37.4944   82.1298   45.1721 C   0  0  0  0  0  0  0  0  0  0  0  0
   36.1519   81.8291   45.1861 O   0  0  0  0  0  0  0  0  0  0  0  0
   33.1218   82.5894   48.7860 N   0  0  0  0  0  0  0  0  0  0  0  0
   33.0339   83.5079   49.9117 C   0  0  0  0  0  0  0  0  0  0  0  0
   32.1282   83.0673   50.9739 C   0  0  0  0  0  0  0  0  0  0  0  0
   32.5579   82.1849   51.9737 C   0  0  0  0  0  0  0  0  0  0  0  0
   31.7223   81.7562   52.9782 C   0  0  0  0  0  0  0  0  0  0  0  0
   30.4209   82.1855   53.0342 C   0  0  0  0  0  0  0  0  0  0  0  0
   29.9722   83.0501   52.0680 C   0  0  0  0  0  0  0  0  0  0  0  0
   28.3101   83.5953   52.1436 Cl  0  0  0  0  0  0  0  0  0  0  0  0
   30.8346   83.4793   51.0494 C   0  0  0  0  0  0  0  0  0  0  0  0
   31.9151   82.4038   48.0159 C   0  0  0  0  0  0  0  0  0  0  0  0
   31.9218   82.5026   46.5290 C   0  0  0  0  0  0  0  0  0  0  0  0
   31.2646   83.5638   47.3048 C   0  0  0  0  0  0  0  0  0  0  0  0
  1  2  2  0
  2  3  1  0
  3  4  1  0
  4  5  1  0
  5  6  1  0
  6  7  1  0
  7  8  1  0
  8  9  1  0
  9 10  1  0
  2 11  1  0
 11 12  1  0
 12 13  1  0
 13 14  2  0
 14 15  1  0
 15 16  2  0
 16 17  1  0
 17 18  1  0
 17 19  2  0
 11 20  1  0
 20 21  1  0
 21 22  1  0
 10  5  1  0
 19 13  1  0
 22 20  1  0
M  END
$$$$
