
     RDKit          3D

 24 27  0  0  0  0  0  0  0  0999 V2000
   12.0123   89.9836   65.4043 C   0  0  0  0  0  0  0  0  0  0  0  0
   12.3327   91.3770   65.1352 N   0  0  0  0  0  0  0  0  0  0  0  0
   11.5419   92.4520   65.1083 C   0  0  0  0  0  0  0  0  0  0  0  0
   12.2793   93.5825   64.8069 C   0  0  0  0  0  0  0  0  0  0  0  0
   11.8122   94.9827   64.6680 C   0  0  0  0  0  0  0  0  0  0  0  0
   12.2049   95.4993   63.4097 N   0  0  0  0  0  0  0  0  0  0  0  0
   13.6240   95.5070   63.2702 C   0  0  0  0  0  0  0  0  0  0  0  0
   14.0321   95.9793   61.8617 C   0  0  0  0  0  0  0  0  0  0  0  0
   13.3184   97.2408   61.4905 C   0  0  0  0  0  0  0  0  0  0  0  0
   12.1311   96.7463   60.7147 C   0  0  0  0  0  0  0  0  0  0  0  0
   12.2374   96.9771   59.2590 C   0  0  0  0  0  0  0  0  0  0  0  0
   11.9648   96.0086   58.4876 O   0  0  0  0  0  0  0  0  0  0  0  0
   12.6266   98.2303   58.7729 N   0  0  0  0  0  0  0  0  0  0  0  0
   12.1503   98.6932   57.4884 C   0  0  0  0  0  0  0  0  0  0  0  0
   11.5714  100.0659   57.7065 C   0  0  0  0  0  0  0  0  0  0  0  0
   10.4009  100.3816   58.3602 C   0  0  0  0  0  0  0  0  0  0  0  0
   10.2452  101.7486   58.3326 C   0  0  0  0  0  0  0  0  0  0  0  0
   11.3466  102.2236   57.6507 C   0  0  0  0  0  0  0  0  0  0  0  0
   12.0886  101.1985   57.3076 O   0  0  0  0  0  0  0  0  0  0  0  0
   12.1626   95.2684   60.9703 C   0  0  0  0  0  0  0  0  0  0  0  0
   11.4897   94.9814   62.3009 C   0  0  0  0  0  0  0  0  0  0  0  0
   13.5144   94.9892   61.0056 O   0  0  0  0  0  0  0  0  0  0  0  0
   13.5775   93.1191   64.6516 C   0  0  0  0  0  0  0  0  0  0  0  0
   13.5491   91.7892   64.8602 N   0  0  0  0  0  0  0  0  0  0  0  0
  1  2  1  0
  2  3  1  0
  3  4  2  0
  4  5  1  0
  5  6  1  0
  6  7  1  0
  7  8  1  0
  8  9  1  0
  9 10  1  0
 10 11  1  0
 11 12  2  0
 11 13  1  0
 13 14  1  0
 14 15  1  0
 15 16  2  0
 16 17  1  0
 17 18  2  0
 18 19  1  0
 10 20  1  0
 20 21  1  0
 20 22  1  0
  4 23  1  0
 23 24  2  0
 24  2  1  0
 21  6  1  0
 22  8  1  0
 19 15  1  0
M  END
$$$$
