
     RDKit          3D

 38 42  0  0  0  0  0  0  0  0999 V2000
   17.5874  102.0411   50.3618 C   0  0  0  0  0  0  0  0  0  0  0  0
   17.2999  102.3996   51.6947 O   0  0  0  0  0  0  0  0  0  0  0  0
   16.2379  101.8137   52.3667 C   0  0  0  0  0  0  0  0  0  0  0  0
   15.0831  101.4969   51.6848 C   0  0  0  0  0  0  0  0  0  0  0  0
   13.9838  100.9105   52.2942 C   0  0  0  0  0  0  0  0  0  0  0  0
   12.8844  100.6091   51.5673 N   0  0  0  0  0  0  0  0  0  0  0  0
   11.8629  100.0295   52.2148 C   0  0  0  0  0  0  0  0  0  0  0  0
   11.8675   99.7413   53.5010 N   0  0  0  0  0  0  0  0  0  0  0  0
   12.9746  100.0383   54.2674 C   0  0  0  0  0  0  0  0  0  0  0  0
   12.9556   99.7421   55.5504 O   0  0  0  0  0  0  0  0  0  0  0  0
   12.4184   99.2289   56.6130 C   0  0  0  0  0  0  0  0  0  0  0  0
   12.5246   97.8427   56.8447 C   0  0  0  0  0  0  0  0  0  0  0  0
   11.9843   97.2206   57.9355 C   0  0  0  0  0  0  0  0  0  0  0  0
   11.2967   97.9487   58.8742 C   0  0  0  0  0  0  0  0  0  0  0  0
   10.7384   97.3034   60.0055 N   0  0  0  0  0  0  0  0  0  0  0  0
   11.4801   96.4293   60.8480 C   0  0  0  0  0  0  0  0  0  0  0  0
   12.6207   96.1154   60.4828 O   0  0  0  0  0  0  0  0  0  0  0  0
   10.9566   95.9214   62.0665 N   0  0  0  0  0  0  0  0  0  0  0  0
   11.5767   94.8944   62.8269 C   0  0  0  0  0  0  0  0  0  0  0  0
   12.8797   94.4574   62.8265 C   0  0  0  0  0  0  0  0  0  0  0  0
   12.9806   93.4197   63.7585 C   0  0  0  0  0  0  0  0  0  0  0  0
   14.1878   92.6289   64.1165 C   0  0  0  0  0  0  0  0  0  0  0  0
   13.9887   91.1542   63.8861 C   0  0  0  0  0  0  0  0  0  0  0  0
   15.2639   93.0435   63.3689 F   0  0  0  0  0  0  0  0  0  0  0  0
   14.5242   92.8585   65.4527 F   0  0  0  0  0  0  0  0  0  0  0  0
   11.7921   93.2788   64.2598 O   0  0  0  0  0  0  0  0  0  0  0  0
   10.9436   94.1337   63.7305 N   0  0  0  0  0  0  0  0  0  0  0  0
   11.1785   99.3047   58.6707 C   0  0  0  0  0  0  0  0  0  0  0  0
   10.4882  100.0495   59.6033 C   0  0  0  0  0  0  0  0  0  0  0  0
   10.3371  101.4092   59.4488 C   0  0  0  0  0  0  0  0  0  0  0  0
   10.8963  102.0242   58.3282 C   0  0  0  0  0  0  0  0  0  0  0  0
   11.5894  101.3066   57.3828 C   0  0  0  0  0  0  0  0  0  0  0  0
   11.7101   99.9497   57.5876 C   0  0  0  0  0  0  0  0  0  0  0  0
   14.0480  100.6340   53.6351 C   0  0  0  0  0  0  0  0  0  0  0  0
   15.2155  100.9539   54.3199 C   0  0  0  0  0  0  0  0  0  0  0  0
   16.3188  101.5410   53.7150 C   0  0  0  0  0  0  0  0  0  0  0  0
   17.4720  101.8570   54.3959 O   0  0  0  0  0  0  0  0  0  0  0  0
   17.6294  101.7228   55.7881 C   0  0  0  0  0  0  0  0  0  0  0  0
  1  2  1  0
  2  3  1  0
  3  4  2  0
  4  5  1  0
  5  6  2  0
  6  7  1  0
  7  8  2  0
  8  9  1  0
  9 10  1  0
 10 11  1  0
 11 12  2  0
 12 13  1  0
 13 14  2  0
 14 15  1  0
 15 16  1  0
 16 17  2  0
 16 18  1  0
 18 19  1  0
 19 20  1  0
 20 21  2  0
 21 22  1  0
 22 23  1  0
 22 24  1  0
 22 25  1  0
 21 26  1  0
 26 27  1  0
 14 28  1  0
 28 29  2  0
 29 30  1  0
 30 31  2  0
 31 32  1  0
 32 33  2  0
  9 34  2  0
 34 35  1  0
 35 36  2  0
 36 37  1  0
 37 38  1  0
 36  3  1  0
 34  5  1  0
 33 11  1  0
 27 19  2  0
 33 28  1  0
M  END
$$$$
