
     RDKit          3D

 20 21  0  0  0  0  0  0  0  0999 V2000
   35.2294   82.9566   49.4046 O   0  0  0  0  0  0  0  0  0  0  0  0
   34.4033   82.3180   50.2027 C   0  0  0  0  0  0  0  0  0  0  0  0
   33.2099   81.9127   49.4953 C   0  0  0  0  0  0  0  0  0  0  0  0
   33.3492   81.5996   48.1567 C   0  0  0  0  0  0  0  0  0  0  0  0
   32.2479   81.2080   47.4479 C   0  0  0  0  0  0  0  0  0  0  0  0
   31.0320   81.1398   48.0994 C   0  0  0  0  0  0  0  0  0  0  0  0
   30.9340   81.4521   49.4037 N   0  0  0  0  0  0  0  0  0  0  0  0
   31.9910   81.8419   50.1389 C   0  0  0  0  0  0  0  0  0  0  0  0
   31.8629   82.1625   51.4989 O   0  0  0  0  0  0  0  0  0  0  0  0
   30.5591   82.1601   52.0485 C   0  0  0  0  0  0  0  0  0  0  0  0
   29.6715   83.1850   51.3763 C   0  0  0  0  0  0  0  0  0  0  0  0
   28.3859   82.9815   51.8405 F   0  0  0  0  0  0  0  0  0  0  0  0
   30.1135   84.4718   51.6070 F   0  0  0  0  0  0  0  0  0  0  0  0
   34.7734   82.1426   51.5164 N   0  0  0  0  0  0  0  0  0  0  0  0
   33.9387   81.4029   52.4949 C   0  0  0  0  0  0  0  0  0  0  0  0
   35.0032   80.4644   53.0651 C   0  0  0  0  0  0  0  0  0  0  0  0
   36.3548   81.0642   52.6999 C   0  0  0  0  0  0  0  0  0  0  0  0
   35.8968   82.4878   52.2874 C   0  0  0  0  0  0  0  0  0  0  0  0
   37.0027   83.2672   51.7045 C   0  0  0  0  0  0  0  0  0  0  0  0
   38.0937   82.4597   51.4380 O   0  0  0  0  0  0  0  0  0  0  0  0
  1  2  2  0
  2  3  1  0
  3  4  2  0
  4  5  1  0
  5  6  2  0
  6  7  1  0
  7  8  2  0
  8  9  1  0
  9 10  1  0
 10 11  1  0
 11 12  1  0
 11 13  1  0
  2 14  1  0
 14 15  1  0
 15 16  1  0
 16 17  1  0
 17 18  1  0
 18 19  1  0
 19 20  1  0
  8  3  1  0
 18 14  1  0
M  END
$$$$
