
     RDKit          3D

 28 29  0  0  0  0  0  0  0  0999 V2000
   15.9502   92.3737   65.5609 C   0  0  0  0  0  0  0  0  0  0  0  0
   14.4508   92.2119   65.5502 C   0  0  0  0  0  0  0  0  0  0  0  0
   13.8503   92.3721   64.1939 C   0  0  0  0  0  3  0  0  0  0  0  0
   12.7929   93.3645   64.2140 N   0  0  0  0  0  0  0  0  0  0  0  0
   12.1379   93.8117   63.0354 C   0  0  0  0  0  0  0  0  0  0  0  0
   12.4760   93.2849   61.9495 O   0  0  0  0  0  0  0  0  0  0  0  0
   11.0933   94.8514   63.0246 C   0  0  1  0  0  0  0  0  0  0  0  0
   11.3339   95.7726   61.9166 N   0  0  0  0  0  0  0  0  0  0  0  0
   11.9130   97.0450   62.1289 C   0  0  0  0  0  0  0  0  0  0  0  0
   12.1283   97.3907   63.3433 O   0  0  0  0  0  0  0  0  0  0  0  0
   12.2637   97.9502   61.0547 C   0  0  0  0  0  0  0  0  0  0  0  0
   11.7405   97.9783   59.8565 C   0  0  0  0  0  0  0  0  0  0  0  0
   11.9826   98.9611   58.8257 C   0  0  0  0  0  0  0  0  0  0  0  0
   12.8922   98.7616   57.8262 C   0  0  0  0  0  0  0  0  0  0  0  0
   13.1096   99.7318   56.8358 C   0  0  0  0  0  0  0  0  0  0  0  0
   12.4024  100.9052   56.8609 C   0  0  0  0  0  0  0  0  0  0  0  0
   11.4872  101.1226   57.8540 C   0  0  0  0  0  0  0  0  0  0  0  0
   11.2885  100.1501   58.8227 C   0  0  0  0  0  0  0  0  0  0  0  0
    9.7072   94.2941   62.8636 C   0  0  2  0  0  0  0  0  0  0  0  0
    8.8821   94.3824   63.9808 N   0  0  0  0  0  0  0  0  0  0  0  0
    7.9155   93.3774   64.0779 C   0  0  1  0  0  0  0  0  0  0  0  0
    6.6227   93.8602   63.5270 C   0  0  0  0  0  0  0  0  0  0  0  0
    5.4725   93.8576   64.3609 N   0  0  0  0  0  0  0  0  0  0  0  0
    6.4677   94.2791   62.3548 O   0  0  0  0  0  0  0  0  0  0  0  0
    8.3462   92.0886   63.5254 C   0  0  0  0  0  0  0  0  0  0  0  0
    8.7934   91.0878   64.5707 C   0  0  0  0  0  0  0  0  0  0  0  0
    7.2703   91.4657   62.6226 C   0  0  0  0  0  0  0  0  0  0  0  0
    9.7002   92.5454   62.4159 S   0  0  0  0  0  0  0  0  0  0  0  0
  1  2  1  0
  2  3  1  0
  3  4  1  0
  4  5  1  0
  5  6  2  0
  5  7  1  0
  7  8  1  6
  8  9  1  0
  9 10  2  0
  9 11  1  0
 11 12  2  0
 12 13  1  0
 13 14  2  0
 14 15  1  0
 15 16  2  0
 16 17  1  0
 17 18  2  0
  7 19  1  0
 19 20  1  1
 20 21  1  0
 21 22  1  6
 22 23  1  0
 22 24  2  0
 21 25  1  0
 25 26  1  0
 25 27  1  0
 25 28  1  0
 18 13  1  0
 28 19  1  0
M  RAD  1   3   2
M  END
$$$$
