
     RDKit          3D

 38 42  0  0  0  0  0  0  0  0999 V2000
   10.0194   59.9293   12.6741 C   0  0  0  0  0  0  0  0  0  0  0  0
   11.3351   60.3706   12.6054 O   0  0  0  0  0  0  0  0  0  0  0  0
   12.3916   59.5428   12.3032 C   0  0  0  0  0  0  0  0  0  0  0  0
   12.1750   58.4031   11.5702 C   0  0  0  0  0  0  0  0  0  0  0  0
   13.2623   57.5824   11.2808 C   0  0  0  0  0  0  0  0  0  0  0  0
   14.5262   57.8677   11.6965 C   0  0  0  0  0  0  0  0  0  0  0  0
   15.6816   57.0483   11.3696 C   0  0  0  0  0  0  0  0  0  0  0  0
   16.1400   56.7283   10.1512 N   0  0  0  0  0  0  0  0  0  0  0  0
   17.1910   55.8997   10.2262 C   0  0  0  0  0  0  0  0  0  0  0  0
   17.9495   55.3276    9.2189 C   0  0  0  0  0  0  0  0  0  0  0  0
   18.9765   54.4980    9.5420 C   0  0  0  0  0  0  0  0  0  0  0  0
   19.2168   54.2621   10.8821 C   0  0  0  0  0  0  0  0  0  0  0  0
   20.2281   53.4433   11.2534 F   0  0  0  0  0  0  0  0  0  0  0  0
   18.4258   54.8623   11.8346 C   0  0  0  0  0  0  0  0  0  0  0  0
   17.4089   55.6848   11.5297 N   0  0  0  0  0  0  0  0  0  0  0  0
   16.5182   56.3599   12.2691 C   0  0  0  0  0  0  0  0  0  0  0  0
   16.3322   56.3941   13.7361 C   0  0  0  0  0  0  0  0  0  0  0  0
   15.7815   55.2658   14.3362 N   0  0  0  0  0  0  0  0  0  0  0  0
   16.0001   53.9776   13.8453 C   0  0  0  0  0  0  0  0  0  0  0  0
   16.5184   52.9729   14.8583 C   0  0  0  0  0  0  0  0  0  0  0  0
   16.1465   53.2323   16.2056 N   0  0  0  0  0  0  0  0  0  0  0  0
   15.6312   52.2919   17.1585 C   0  0  0  0  0  0  0  0  0  0  0  0
   14.8721   52.7735   18.0526 O   0  0  0  0  0  0  0  0  0  0  0  0
   15.9020   50.9248   17.1663 N   0  0  0  0  0  0  0  0  0  0  0  0
   15.4016   49.9671   18.0759 C   0  0  0  0  0  0  0  0  0  0  0  0
   16.2346   48.8809   18.3931 C   0  0  0  0  0  0  0  0  0  0  0  0
   15.8640   47.8774   19.2556 C   0  0  0  0  0  0  0  0  0  0  0  0
   14.6346   47.8971   19.8563 C   0  0  0  0  0  0  0  0  0  0  0  0
   14.2712   46.9100   20.7024 F   0  0  0  0  0  0  0  0  0  0  0  0
   13.8126   48.9521   19.5547 C   0  0  0  0  0  0  0  0  0  0  0  0
   12.5855   48.9943   20.1337 F   0  0  0  0  0  0  0  0  0  0  0  0
   14.1766   49.9765   18.6816 C   0  0  0  0  0  0  0  0  0  0  0  0
   16.3184   54.6363   16.6372 C   0  0  0  0  0  0  0  0  0  0  0  0
   15.3947   55.4016   15.7078 C   0  0  0  0  0  0  0  0  0  0  0  0
   14.7104   59.0234   12.4336 C   0  0  0  0  0  0  0  0  0  0  0  0
   13.6693   59.8671   12.7443 C   0  0  0  0  0  0  0  0  0  0  0  0
   13.8137   61.0351   13.4751 O   0  0  0  0  0  0  0  0  0  0  0  0
   15.1403   61.4507   13.7553 C   0  0  0  0  0  0  0  0  0  0  0  0
  1  2  1  0
  2  3  1  0
  3  4  2  0
  4  5  1  0
  5  6  2  0
  6  7  1  0
  7  8  1  0
  8  9  2  0
  9 10  1  0
 10 11  2  0
 11 12  1  0
 12 13  1  0
 12 14  2  0
 14 15  1  0
 15 16  1  0
 16 17  1  0
 17 18  1  0
 18 19  1  0
 19 20  1  0
 20 21  1  0
 21 22  1  0
 22 23  2  0
 22 24  1  0
 24 25  1  0
 25 26  2  0
 26 27  1  0
 27 28  2  0
 28 29  1  0
 28 30  1  0
 30 31  1  0
 30 32  2  0
 21 33  1  0
 33 34  1  0
  6 35  1  0
 35 36  2  0
 36 37  1  0
 37 38  1  0
 36  3  1  0
 16  7  2  0
 34 18  1  0
 15  9  1  0
 32 25  1  0
M  END
$$$$
