
     RDKit          3D

 24 25  0  0  0  0  0  0  0  0999 V2000
   15.2594   55.2210   13.6012 C   0  0  0  0  0  0  0  0  0  0  0  0
   15.6724   54.0426   12.7475 C   0  0  0  0  0  0  0  0  0  0  0  0
   16.8494   53.3190   13.4089 C   0  0  0  0  0  0  0  0  0  0  0  0
   16.4740   52.9095   14.7825 C   0  0  0  0  0  0  0  0  0  0  0  0
   15.3577   53.2737   15.2215 O   0  0  0  0  0  0  0  0  0  0  0  0
   17.3050   52.1314   15.6243 N   0  0  0  0  0  0  0  0  0  0  0  0
   18.5765   51.6213   15.1192 C   0  0  0  0  0  0  0  0  0  0  0  0
   16.9571   51.8042   16.9870 C   0  0  0  0  0  0  0  0  0  0  0  0
   16.4246   50.4349   17.1077 C   0  0  0  0  0  0  0  0  0  0  0  0
   15.9629   49.8045   16.1235 O   0  0  0  0  0  0  0  0  0  0  0  0
   16.4470   49.8255   18.4080 N   0  0  0  0  0  0  0  0  0  0  0  0
   15.9289   48.4849   18.5555 C   0  0  0  0  0  0  0  0  0  0  0  0
   15.5314   48.2717   19.9780 C   0  0  0  0  0  0  0  0  0  0  0  0
   15.1679   49.2402   20.6930 O   0  0  0  0  0  0  0  0  0  0  0  0
   15.5470   46.9810   20.5758 N   0  0  0  0  0  0  0  0  0  0  0  0
   14.8588   46.7685   21.8106 C   0  0  0  0  0  0  0  0  0  0  0  0
   15.0211   45.3241   22.3308 C   0  0  0  0  0  0  0  0  0  0  0  0
   13.6856   45.8650   21.9039 C   0  0  0  0  0  0  0  0  0  0  0  0
   15.9991   54.4476   11.3751 C   0  0  0  0  0  0  0  0  0  0  0  0
   16.8777   53.7028   10.6001 C   0  0  0  0  0  0  0  0  0  0  0  0
   17.1924   54.0765    9.3096 C   0  0  0  0  0  0  0  0  0  0  0  0
   16.6450   55.2066    8.7380 C   0  0  0  0  0  0  0  0  0  0  0  0
   15.7698   55.9473    9.5117 C   0  0  0  0  0  0  0  0  0  0  0  0
   15.4498   55.5760   10.8107 C   0  0  0  0  0  0  0  0  0  0  0  0
  1  2  1  0
  2  3  1  0
  3  4  1  0
  4  5  2  0
  4  6  1  0
  6  7  1  0
  6  8  1  0
  8  9  1  0
  9 10  2  0
  9 11  1  0
 11 12  1  0
 12 13  1  0
 13 14  2  0
 13 15  1  0
 15 16  1  0
 16 17  1  0
 17 18  1  0
  2 19  1  0
 19 20  2  0
 20 21  1  0
 21 22  2  0
 22 23  1  0
 23 24  2  0
 18 16  1  0
 24 19  1  0
M  END
$$$$
