
     RDKit          3D

 26 29  0  0  0  0  0  0  0  0999 V2000
    9.7067   59.2494   12.2938 C   0  0  0  0  0  2  0  0  0  0  0  0
   11.0695   59.6753   12.7548 C   0  0  1  0  0  0  0  0  0  0  0  0
   11.9651   58.4389   12.8440 C   0  0  0  0  0  0  0  0  0  0  0  0
   13.3004   58.8725   13.1575 N   0  0  0  0  0  0  0  0  0  0  0  0
   14.3697   57.9596   13.1526 C   0  0  0  0  0  0  0  0  0  0  0  0
   15.6342   58.4375   12.8783 C   0  0  0  0  0  0  0  0  0  0  0  0
   16.7015   57.5681   12.8336 C   0  0  0  0  0  0  0  0  0  0  0  0
   16.4637   56.2073   13.0706 C   0  0  0  0  0  0  0  0  0  0  0  0
   17.5486   55.3326   12.9805 N   0  0  0  0  0  0  0  0  0  0  0  0
   17.4695   53.9591   13.5099 C   0  0  0  0  0  0  0  0  0  0  0  0
   16.8620   53.3115   14.2362 N   0  0  0  0  0  0  0  0  0  0  0  0
   16.9513   52.0322   14.5321 C   0  0  0  0  0  0  0  0  0  0  0  0
   16.1180   51.2790   15.5017 C   0  0  0  0  0  0  0  0  0  0  0  0
   15.1674   51.7386   16.3151 N   0  0  0  0  0  0  0  0  0  0  0  0
   14.6207   50.7428   17.0506 C   0  0  0  0  0  0  0  0  0  0  0  0
   13.3368   50.8649   18.2533 Cl  0  0  0  0  0  0  0  0  0  0  0  0
   15.2802   49.6010   16.6615 C   0  0  0  0  0  0  0  0  0  0  0  0
   16.1762   49.9539   15.7274 N   0  0  0  0  0  0  0  0  0  0  0  0
   17.9500   51.3738   13.8418 C   0  0  0  0  0  0  0  0  0  0  0  0
   18.6750   52.6830   12.8178 S   0  0  0  0  0  0  0  0  0  0  0  0
   15.2062   55.7561   13.3395 C   0  0  0  0  0  0  0  0  0  0  0  0
   14.1426   56.6345   13.3833 C   0  0  0  0  0  0  0  0  0  0  0  0
   13.4846   60.2786   13.4486 C   0  0  0  0  0  0  0  0  0  0  0  0
   12.8200   61.1219   12.3666 C   0  0  1  0  0  0  0  0  0  0  0  0
   13.7678   61.2701   11.1881 C   0  0  0  0  0  0  0  0  0  0  0  0
   11.6644   60.5547   11.8740 O   0  0  0  0  0  0  0  0  0  0  0  0
  2  1  1  6
  2  3  1  0
  3  4  1  0
  4  5  1  0
  5  6  2  0
  6  7  1  0
  7  8  2  0
  8  9  1  0
  9 10  1  0
 10 11  2  0
 11 12  1  0
 12 13  1  0
 13 14  2  0
 14 15  1  0
 15 16  1  0
 15 17  2  0
 17 18  1  0
 12 19  2  0
 19 20  1  0
  8 21  1  0
 21 22  2  0
  4 23  1  0
 23 24  1  0
 24 25  1  6
 24 26  1  0
 26  2  1  0
 22  5  1  0
 20 10  1  0
 18 13  1  0
M  RAD  1   1   3
M  END
$$$$
