
     RDKit          3D

 28 31  0  0  0  0  0  0  0  0999 V2000
   15.7070  102.4889   55.1786 O   0  0  0  0  0  0  0  0  0  0  0  0
   15.0948  101.4274   54.8893 C   0  0  0  0  0  0  0  0  0  0  0  0
   15.5653  100.4166   54.0102 N   0  0  0  0  0  0  0  0  0  0  0  0
   14.5827   99.3859   53.9518 C   0  0  0  0  0  0  0  0  0  0  0  0
   14.8100   98.2504   53.4751 O   0  0  0  0  0  0  0  0  0  0  0  0
   13.3640   99.9520   54.5374 C   0  0  0  0  0  0  0  0  0  0  0  0
   12.6269   98.9688   55.4208 C   0  0  0  0  0  0  0  0  0  0  0  0
   13.0334   99.0584   56.8537 C   0  0  0  0  0  0  0  0  0  0  0  0
   12.0452   98.3589   57.6913 C   0  0  0  0  0  0  0  0  0  0  0  0
   11.0758   97.7775   57.1603 O   0  0  0  0  0  0  0  0  0  0  0  0
   12.1848   98.3405   59.0881 N   0  0  0  0  0  0  0  0  0  0  0  0
   13.4117   98.7870   59.6929 C   0  0  0  0  0  0  0  0  0  0  0  0
   13.9640   97.6346   60.4746 C   0  0  0  0  0  0  0  0  0  0  0  0
   13.1472   96.8119   61.0652 C   0  0  0  0  0  0  0  0  0  0  0  0
   13.6559   95.6650   61.8455 C   0  0  0  0  0  0  0  0  0  0  0  0
   14.8440   95.7623   62.5665 C   0  0  0  0  0  0  0  0  0  0  0  0
   15.3373   94.7110   63.3092 C   0  0  0  0  0  0  0  0  0  0  0  0
   14.6858   93.5011   63.3832 C   0  0  0  0  0  0  0  0  0  0  0  0
   15.3380   92.1769   64.3384 Cl  0  0  0  0  0  0  0  0  0  0  0  0
   13.5123   93.3828   62.6799 C   0  0  0  0  0  0  0  0  0  0  0  0
   13.0110   94.4544   61.9240 C   0  0  0  0  0  0  0  0  0  0  0  0
   11.6628   96.9245   61.0115 C   0  0  0  0  0  0  0  0  0  0  0  0
   11.1515   97.8902   59.9942 C   0  0  0  0  0  0  0  0  0  0  0  0
   12.4037  100.5006   53.5194 C   0  0  0  0  0  0  0  0  0  0  0  0
   11.9836   99.4873   52.4939 C   0  0  0  0  0  0  0  0  0  0  0  0
   12.7337  100.2617   51.4248 C   0  0  0  0  0  0  0  0  0  0  0  0
   12.9886  101.3462   52.4370 C   0  0  0  0  0  0  0  0  0  0  0  0
   13.8260  101.0333   55.3789 N   0  0  0  0  0  0  0  0  0  0  0  0
  1  2  2  0
  2  3  1  0
  3  4  1  0
  4  5  2  0
  4  6  1  0
  6  7  1  0
  7  8  1  0
  8  9  1  0
  9 10  2  0
  9 11  1  0
 11 12  1  0
 12 13  1  0
 13 14  2  0
 14 15  1  0
 15 16  2  0
 16 17  1  0
 17 18  2  0
 18 19  1  0
 18 20  1  0
 20 21  2  0
 14 22  1  0
 22 23  1  0
  6 24  1  0
 24 25  1  0
 25 26  1  0
 26 27  1  0
  6 28  1  0
 28  2  1  0
 23 11  1  0
 27 24  1  0
 21 15  1  0
M  END
$$$$
