
     RDKit          3D

 18 18  0  0  0  0  0  0  0  0999 V2000
   35.6192   81.2972   45.8706 C   0  0  0  0  0  0  0  0  0  0  0  0
   34.7951   82.1849   46.3999 C   0  0  0  0  0  0  0  0  0  0  0  0
   34.6607   82.2642   47.8552 C   0  0  0  0  0  0  0  0  0  0  0  0
   33.3312   82.0189   48.3000 O   0  0  0  0  0  0  0  0  0  0  0  0
   33.1042   82.0721   49.6638 C   0  0  0  0  0  0  0  0  0  0  0  0
   34.1121   82.3509   50.5847 C   0  0  0  0  0  0  0  0  0  0  0  0
   33.8389   82.3934   51.9353 C   0  0  0  0  0  0  0  0  0  0  0  0
   32.5594   82.1592   52.3890 C   0  0  0  0  0  0  0  0  0  0  0  0
   32.1796   82.2179   54.2768 Br  0  0  0  0  0  0  0  0  0  0  0  0
   31.5660   81.8856   51.4977 C   0  0  0  0  0  0  0  0  0  0  0  0
   31.8335   81.8414   50.1405 C   0  0  0  0  0  0  0  0  0  0  0  0
   30.4596   81.5040   49.4763 B   0  0  0  0  0  0  0  0  0  0  0  0
   30.1704   81.6141   48.0608 O   0  0  0  0  0  0  0  0  0  0  0  0
   29.6199   81.0295   50.5761 O   0  0  0  0  0  0  0  0  0  0  0  0
   30.1322   81.6042   51.7300 C   0  0  0  0  0  0  0  0  0  0  0  0
   29.3487   82.8733   51.9765 C   0  0  0  0  0  0  0  0  0  0  0  0
   29.7844   83.5808   53.1629 N   0  0  0  0  0  0  0  0  0  0  0  0
   32.7938   82.0936   49.5528 Cl  0  0  0  0  0  0  0  0  0  0  0  0
  1  2  2  0
  2  3  1  0
  3  4  1  0
  4  5  1  0
  5  6  2  0
  6  7  1  0
  7  8  2  0
  8  9  1  0
  8 10  1  0
 10 11  2  0
 11 12  1  0
 12 13  1  0
 12 14  1  0
 14 15  1  0
 15 16  1  0
 16 17  1  0
 11  5  1  0
 15 10  1  0
M  END
$$$$
