
     RDKit          3D

 25 28  0  0  0  0  0  0  0  0999 V2000
   13.7539   97.5659   57.9326 O   0  0  0  0  0  0  0  0  0  0  0  0
   12.7071   98.2781   57.8341 C   0  0  0  0  0  0  0  0  0  0  0  0
   12.5417   99.1639   56.6342 C   0  0  0  0  0  0  0  0  0  0  0  0
   13.8725   99.6818   56.2020 C   0  0  0  0  0  0  0  0  0  0  0  0
   14.8128   99.9789   57.1073 N   0  0  0  0  0  0  0  0  0  0  0  0
   16.0051  100.4776   56.8127 N   0  0  0  0  0  0  0  0  0  0  0  0
   16.2803  100.6972   55.5156 C   0  0  0  0  0  0  0  0  0  0  0  0
   17.4000  101.1739   55.1689 O   0  0  0  0  0  0  0  0  0  0  0  0
   15.3791  100.4221   54.5215 C   0  0  0  0  0  0  0  0  0  0  0  0
   15.6604  100.6389   53.1977 C   0  0  0  0  0  0  0  0  0  0  0  0
   14.7202  100.3386   52.2320 C   0  0  0  0  0  0  0  0  0  0  0  0
   13.4877   99.8169   52.5896 C   0  0  0  0  0  0  0  0  0  0  0  0
   13.1998   99.5985   53.9068 C   0  0  0  0  0  0  0  0  0  0  0  0
   14.1413   99.9003   54.8652 C   0  0  0  0  0  0  0  0  0  0  0  0
   11.7741   98.1718   58.8843 N   0  0  0  0  0  0  0  0  0  0  0  0
   11.8684   97.0957   59.8597 C   0  0  0  0  0  0  0  0  0  0  0  0
   11.2888   96.3323   60.4939 N   0  0  0  0  0  0  0  0  0  0  0  0
   11.6916   95.4239   61.3374 C   0  0  0  0  0  0  0  0  0  0  0  0
   10.9442   94.5114   62.0939 C   0  0  0  0  0  0  0  0  0  0  0  0
   11.5828   93.6338   62.9314 C   0  0  0  0  0  0  0  0  0  0  0  0
   12.9345   93.5532   63.1133 C   0  0  0  0  0  0  0  0  0  0  0  0
   13.5615   92.6961   63.9317 F   0  0  0  0  0  0  0  0  0  0  0  0
   13.6977   94.4623   62.3609 C   0  0  0  0  0  0  0  0  0  0  0  0
   13.0550   95.3432   61.5201 C   0  0  0  0  0  0  0  0  0  0  0  0
   13.6547   96.6436   60.4086 S   0  0  0  0  0  0  0  0  0  0  0  0
  1  2  2  0
  2  3  1  0
  3  4  1  0
  4  5  2  0
  5  6  1  0
  6  7  1  0
  7  8  2  0
  7  9  1  0
  9 10  2  0
 10 11  1  0
 11 12  2  0
 12 13  1  0
 13 14  2  0
  2 15  1  0
 15 16  1  0
 16 17  2  0
 17 18  1  0
 18 19  2  0
 19 20  1  0
 20 21  2  0
 21 22  1  0
 21 23  1  0
 23 24  2  0
 24 25  1  0
 14  4  1  0
 25 16  1  0
 14  9  1  0
 24 18  1  0
M  END
$$$$
