
     RDKit          3D

 22 23  0  0  0  0  0  0  0  0999 V2000
    7.4827   92.0351   64.6677 C   0  0  0  0  0  0  0  0  0  0  0  0
    8.9242   92.3680   64.4893 C   0  0  0  0  0  0  0  0  0  0  0  0
    9.7956   91.3480   64.1773 C   0  0  0  0  0  0  0  0  0  0  0  0
   11.1379   91.6324   64.0068 C   0  0  0  0  0  0  0  0  0  0  0  0
   11.5762   92.9238   64.1515 C   0  0  0  0  0  0  0  0  0  0  0  0
   12.9395   93.2769   63.9889 N   0  0  0  0  0  0  0  0  0  0  0  0
   13.8904   92.1808   63.8121 C   0  0  0  0  0  0  0  0  0  0  0  0
   15.0840   92.7533   63.0984 C   0  0  0  0  0  0  0  0  0  0  0  0
   15.5849   93.9880   63.7378 C   0  0  0  0  0  0  0  0  0  0  0  0
   14.6968   94.8319   64.2768 O   0  0  0  0  0  0  0  0  0  0  0  0
   13.3698   94.6544   63.9977 C   0  0  1  0  0  0  0  0  0  0  0  0
   13.0742   95.3507   62.6866 C   0  0  0  0  0  0  0  0  0  0  0  0
   12.2470   96.5212   62.8898 N   0  0  0  0  0  0  0  0  0  0  0  0
   11.3536   96.9809   61.8917 C   0  0  0  0  0  0  0  0  0  0  0  0
   10.2120   96.4566   61.8603 O   0  0  0  0  0  0  0  0  0  0  0  0
   11.7272   97.9661   60.9915 O   0  0  0  0  0  0  0  0  0  0  0  0
   10.7927   98.3713   60.0119 C   0  0  0  0  0  0  0  0  0  0  0  0
   11.3520   99.5259   59.2451 C   0  0  0  0  0  0  0  0  0  0  0  0
    9.5100   98.7272   60.7385 C   0  0  0  0  0  0  0  0  0  0  0  0
   10.4530   97.2450   59.0613 C   0  0  0  0  0  0  0  0  0  0  0  0
   10.6875   93.8704   64.4540 N   0  0  0  0  0  0  0  0  0  0  0  0
    9.4148   93.5943   64.6145 N   0  0  0  0  0  0  0  0  0  0  0  0
  1  2  1  0
  2  3  2  0
  3  4  1  0
  4  5  2  0
  5  6  1  0
  6  7  1  0
  7  8  1  0
  8  9  1  0
  9 10  1  0
 10 11  1  0
 11 12  1  6
 12 13  1  0
 13 14  1  0
 14 15  2  0
 14 16  1  0
 16 17  1  0
 17 18  1  0
 17 19  1  0
 17 20  1  0
  5 21  1  0
 21 22  2  0
 22  2  1  0
 11  6  1  0
M  END
$$$$
