
     RDKit          3D

 20 21  0  0  0  0  0  0  0  0999 V2000
   13.9692   47.9235   19.6448 C   0  0  0  0  0  0  0  0  0  0  0  0
   15.0948   48.2700   18.7146 C   0  0  0  0  0  0  0  0  0  0  0  0
   16.2684   47.9933   19.0460 O   0  0  0  0  0  0  0  0  0  0  0  0
   14.8663   48.9056   17.4639 N   0  0  0  0  0  0  0  0  0  0  0  0
   15.9280   49.2553   16.5643 C   0  0  0  0  0  0  0  0  0  0  0  0
   16.7291   50.4351   17.0019 C   0  0  0  0  0  0  0  0  0  0  0  0
   16.9572   51.4228   15.9600 N   0  0  0  0  0  0  0  0  0  0  0  0
   15.9896   52.3704   15.5841 C   0  0  0  0  0  0  0  0  0  0  0  0
   14.8598   52.3036   16.2105 O   0  0  0  0  0  0  0  0  0  0  0  0
   16.1582   53.4020   14.5630 C   0  0  0  0  0  0  0  0  0  0  0  0
   14.7742   54.5249   14.1314 S   0  0  0  0  0  0  0  0  0  0  0  0
   15.8357   55.4183   12.8500 C   0  0  0  0  0  0  0  0  0  0  0  0
   15.1664   56.5435   12.1064 C   0  0  0  0  0  0  0  0  0  0  0  0
   13.8393   56.8126   12.0346 C   0  0  0  0  0  0  0  0  0  0  0  0
   13.7223   57.9520   11.2306 C   0  0  0  0  0  0  0  0  0  0  0  0
   14.9225   58.2957   10.8758 O   0  0  0  0  0  0  0  0  0  0  0  0
   15.8168   57.4933   11.3682 C   0  0  0  0  0  0  0  0  0  0  0  0
   16.8118   54.8424   12.9559 N   0  0  0  0  0  0  0  0  0  0  0  0
   17.1391   53.8283   13.7458 C   0  0  0  0  0  0  0  0  0  0  0  0
   18.5117   53.1775   13.7489 C   0  0  0  0  0  0  0  0  0  0  0  0
  1  2  1  0
  2  3  2  0
  2  4  1  0
  4  5  1  0
  5  6  1  0
  6  7  1  0
  7  8  1  0
  8  9  2  0
  8 10  1  0
 10 11  1  0
 11 12  1  0
 12 13  1  0
 13 14  1  0
 14 15  2  0
 15 16  1  0
 16 17  1  0
 12 18  2  0
 18 19  1  0
 19 20  1  0
 19 10  2  0
 17 13  2  0
M  END
$$$$
