
     RDKit          3D

 29 31  0  0  0  0  0  0  0  0999 V2000
   43.5141   79.9879   46.4197 C   0  0  0  0  0  0  0  0  0  0  0  0
   42.1362   79.5419   46.4378 N   0  0  0  0  0  0  0  0  0  0  0  0
   41.3501   80.6698   46.9558 C   0  0  0  0  0  0  0  0  0  0  0  0
   40.0503   80.7633   46.2056 C   0  0  0  0  0  0  0  0  0  0  0  0
   38.9399   80.1977   47.0858 C   0  0  0  0  0  0  0  0  0  0  0  0
   37.9361   81.1700   47.4004 N   0  0  0  0  0  0  0  0  0  0  0  0
   37.6120   81.4703   48.7225 C   0  0  0  0  0  0  0  0  0  0  0  0
   38.6542   81.4742   49.6602 C   0  0  0  0  0  0  0  0  0  0  0  0
   38.4498   81.8006   50.9774 C   0  0  0  0  0  0  0  0  0  0  0  0
   39.5847   81.7549   51.8384 O   0  0  0  0  0  0  0  0  0  0  0  0
   40.3512   80.5996   51.9242 C   0  0  0  0  0  0  0  0  0  0  0  0
   37.1845   82.1360   51.3760 C   0  0  0  0  0  0  0  0  0  0  0  0
   37.0211   82.5474   52.6542 N   0  0  0  0  0  0  0  0  0  0  0  0
   35.7793   82.9773   52.9970 C   0  0  0  0  0  0  0  0  0  0  0  0
   34.7353   83.0005   52.1246 C   0  0  0  0  0  0  0  0  0  0  0  0
   33.5174   83.6165   52.5689 C   0  0  0  0  0  0  0  0  0  0  0  0
   32.4953   84.1373   52.9516 N   0  0  0  0  0  0  0  0  0  0  0  0
   34.8942   82.5786   50.8300 C   0  0  0  0  0  0  0  0  0  0  0  0
   33.8317   82.5434   49.8973 N   0  0  0  0  0  0  0  0  0  0  0  0
   32.4697   82.5477   50.2482 C   0  0  0  0  0  0  0  0  0  0  0  0
   31.5575   82.9377   49.2839 C   0  0  0  0  0  0  0  0  0  0  0  0
   30.1850   82.9859   49.4987 C   0  0  0  0  0  0  0  0  0  0  0  0
   29.7353   82.6128   50.7711 C   0  0  0  0  0  0  0  0  0  0  0  0
   28.3951   82.6461   50.9895 F   0  0  0  0  0  0  0  0  0  0  0  0
   30.6345   82.2193   51.7475 C   0  0  0  0  0  0  0  0  0  0  0  0
   30.0049   81.7238   53.3327 Cl  0  0  0  0  0  0  0  0  0  0  0  0
   31.9624   82.2028   51.4475 C   0  0  0  0  0  0  0  0  0  0  0  0
   36.1699   82.1262   50.4332 C   0  0  0  0  0  0  0  0  0  0  0  0
   36.3355   81.8036   49.1207 C   0  0  0  0  0  0  0  0  0  0  0  0
  1  2  1  0
  2  3  1  0
  3  4  1  0
  4  5  1  0
  5  6  1  0
  6  7  1  0
  7  8  2  0
  8  9  1  0
  9 10  1  0
 10 11  1  0
  9 12  2  0
 12 13  1  0
 13 14  2  0
 14 15  1  0
 15 16  1  0
 16 17  3  0
 15 18  2  0
 18 19  1  0
 19 20  1  0
 20 21  2  0
 21 22  1  0
 22 23  2  0
 23 24  1  0
 23 25  1  0
 25 26  1  0
 25 27  2  0
 18 28  1  0
 28 29  2  0
 29  7  1  0
 28 12  1  0
 27 20  1  0
M  END
$$$$
