
     RDKit          3D

 15 16  0  0  0  0  0  0  0  0999 V2000
   13.0762   49.0843   18.4480 C   0  0  0  0  0  0  0  0  0  0  0  0
   14.2861   49.8947   18.1161 C   0  0  0  0  0  0  0  0  0  0  0  0
   15.2531   50.2547   18.9865 N   0  0  0  0  0  0  0  0  0  0  0  0
   16.1573   50.9576   18.3549 O   0  0  0  0  0  0  0  0  0  0  0  0
   15.7955   51.0560   17.1091 C   0  0  0  0  0  0  0  0  0  0  0  0
   16.5245   51.7659   16.0344 C   0  0  0  0  0  0  0  0  0  0  0  0
   15.6829   52.2160   15.0241 O   0  0  0  0  0  0  0  0  0  0  0  0
   16.0523   52.8550   13.8775 C   0  0  0  0  0  0  0  0  0  0  0  0
   15.3305   53.9377   13.4103 C   0  0  0  0  0  0  0  0  0  0  0  0
   15.6936   54.5931   12.2514 C   0  0  0  0  0  0  0  0  0  0  0  0
   16.7870   54.2050   11.5052 C   0  0  0  0  0  0  0  0  0  0  0  0
   17.2822   55.1218    9.8983 Br  0  0  0  0  0  0  0  0  0  0  0  0
   17.5081   53.1261   11.9688 C   0  0  0  0  0  0  0  0  0  0  0  0
   17.1443   52.4727   13.1260 C   0  0  0  0  0  0  0  0  0  0  0  0
   14.6354   50.4057   16.9267 N   0  0  0  0  0  0  0  0  0  0  0  0
  1  2  1  0
  2  3  2  0
  3  4  1  0
  4  5  1  0
  5  6  1  0
  6  7  1  0
  7  8  1  0
  8  9  2  0
  9 10  1  0
 10 11  2  0
 11 12  1  0
 11 13  1  0
 13 14  2  0
  5 15  2  0
 15  2  1  0
 14  8  1  0
M  END
$$$$
