
     RDKit          3D

 19 20  0  0  0  0  0  0  0  0999 V2000
   16.0605   57.0603   10.9358 C   0  0  0  0  0  0  0  0  0  0  0  0
   16.4534   55.7317   11.4640 C   0  0  0  0  0  0  0  0  0  0  0  0
   16.0201   55.0541   12.5781 C   0  0  0  0  0  0  0  0  0  0  0  0
   16.7024   53.8585   12.6152 C   0  0  0  0  0  0  0  0  0  0  0  0
   16.5889   52.8284   13.5820 N   0  0  0  0  0  0  0  0  0  0  0  0
   15.6590   52.9847   14.7002 C   0  0  0  0  0  0  0  0  0  0  0  0
   15.1284   54.1003   14.7232 O   0  0  0  0  0  0  0  0  0  0  0  0
   15.5163   51.8516   15.5478 C   0  0  0  0  0  0  0  0  0  0  0  0
   16.4227   51.1046   16.1063 C   0  0  0  0  0  0  0  0  0  0  0  0
   16.1357   49.9876   16.9562 C   0  0  0  0  0  0  0  0  0  0  0  0
   16.9869   49.0991   17.5070 C   0  0  0  0  0  0  0  0  0  0  0  0
   16.5255   48.1515   18.4134 C   0  0  0  0  0  0  0  0  0  0  0  0
   15.2155   48.0438   18.8042 C   0  0  0  0  0  0  0  0  0  0  0  0
   14.6494   46.8447   19.9474 Cl  0  0  0  0  0  0  0  0  0  0  0  0
   14.3327   48.9494   18.2409 C   0  0  0  0  0  0  0  0  0  0  0  0
   12.6381   48.8527   18.7069 Cl  0  0  0  0  0  0  0  0  0  0  0  0
   14.7756   49.8859   17.3506 C   0  0  0  0  0  0  0  0  0  0  0  0
   17.5080   53.8440   11.5527 N   0  0  0  0  0  0  0  0  0  0  0  0
   17.3354   54.9523   10.9053 O   0  0  0  0  0  0  0  0  0  0  0  0
  1  2  1  0
  2  3  2  0
  3  4  1  0
  4  5  1  0
  5  6  1  0
  6  7  2  0
  6  8  1  0
  8  9  2  0
  9 10  1  0
 10 11  2  0
 11 12  1  0
 12 13  2  0
 13 14  1  0
 13 15  1  0
 15 16  1  0
 15 17  2  0
  4 18  2  0
 18 19  1  0
 19  2  1  0
 17 10  1  0
M  END
$$$$
