
     RDKit          3D

 27 31  0  0  0  0  0  0  0  0999 V2000
   15.7126   54.5489   14.8407 F   0  0  0  0  0  0  0  0  0  0  0  0
   15.7166   55.7794   14.2686 C   0  0  0  0  0  0  0  0  0  0  0  0
   16.8252   56.5918   14.3837 C   0  0  0  0  0  0  0  0  0  0  0  0
   16.8459   57.8480   13.8070 C   0  0  0  0  0  0  0  0  0  0  0  0
   15.7318   58.2599   13.1187 C   0  0  0  0  0  0  0  0  0  0  0  0
   14.6050   57.4320   13.0030 C   0  0  0  0  0  0  0  0  0  0  0  0
   13.4650   57.9305   12.2479 C   0  0  0  0  0  0  0  0  0  0  0  0
   12.6274   57.2400   11.3928 C   0  0  0  0  0  0  0  0  0  0  0  0
   11.7018   58.0759   10.8890 N   0  0  0  0  0  0  0  0  0  0  0  0
   11.9394   59.2884   11.4116 C   0  0  0  0  0  0  0  0  0  0  0  0
   11.3267   60.5151   11.2590 C   0  0  0  0  0  0  0  0  0  0  0  0
   11.7849   61.6059   11.9180 N   0  0  0  0  0  0  0  0  0  0  0  0
   12.8455   61.5422   12.7405 C   0  0  0  0  0  0  0  0  0  0  0  0
   13.3553   62.7042   13.4593 C   0  0  0  0  0  0  0  0  0  0  0  0
   14.4239   62.7860   14.3238 C   0  0  0  0  0  0  0  0  0  0  0  0
   14.5136   64.0763   14.7464 N   0  0  0  0  0  0  0  0  0  0  0  0
   13.5682   64.8073   14.2005 N   0  0  0  0  0  0  0  0  0  0  0  0
   13.3648   66.2176   14.4248 C   0  0  0  0  0  0  0  0  0  0  0  0
   14.3078   66.7982   15.4426 C   0  0  0  0  0  0  0  0  0  0  0  0
   13.8262   68.2001   15.7589 C   0  0  0  0  0  0  0  0  0  0  0  0
   12.7449   68.6188   14.9205 N   0  0  0  0  0  0  0  0  0  0  0  0
   12.9956   68.4461   13.5192 C   0  0  0  0  0  0  0  0  0  0  0  0
   13.4648   67.0414   13.1740 C   0  0  0  0  0  0  0  0  0  0  0  0
   12.8396   63.9816   13.4011 C   0  0  0  0  0  0  0  0  0  0  0  0
   13.4479   60.3045   12.8821 C   0  0  0  0  0  0  0  0  0  0  0  0
   13.0173   59.1925   12.2401 N   0  0  0  0  0  0  0  0  0  0  0  0
   14.6010   56.1936   13.5784 C   0  0  0  0  0  0  0  0  0  0  0  0
  1  2  1  0
  2  3  2  0
  3  4  1  0
  4  5  2  0
  5  6  1  0
  6  7  1  0
  7  8  2  0
  8  9  1  0
  9 10  2  0
 10 11  1  0
 11 12  2  0
 12 13  1  0
 13 14  1  0
 14 15  1  0
 15 16  2  0
 16 17  1  0
 17 18  1  0
 18 19  1  0
 19 20  1  0
 20 21  1  0
 21 22  1  0
 22 23  1  0
 17 24  1  0
 13 25  2  0
 25 26  1  0
  6 27  2  0
 27  2  1  0
 26  7  1  0
 26 10  1  0
 24 14  2  0
 23 18  1  0
M  END
$$$$
