
     RDKit          3D

 27 30  0  0  0  0  0  0  0  0999 V2000
   14.5104   59.2569   11.1978 C   0  0  0  0  0  0  0  0  0  0  0  0
   14.3619   58.4801   12.4903 C   0  0  0  0  0  0  0  0  0  0  0  0
   13.4907   59.3063   13.4350 C   0  0  0  0  0  0  0  0  0  0  0  0
   13.5523   58.5613   14.7738 C   0  0  0  0  0  0  0  0  0  0  0  0
   14.9051   58.8919   15.3634 C   0  0  0  0  0  0  0  0  0  0  0  0
   15.2394   57.8400   16.3004 N   0  0  0  0  0  0  0  0  0  0  0  0
   15.9871   58.9658   14.3393 C   0  0  0  0  0  0  0  0  0  0  0  0
   15.6961   58.1997   13.0818 C   0  0  0  0  0  0  0  0  0  0  0  0
   15.7816   56.7870   13.3851 N   0  0  0  0  0  0  0  0  0  0  0  0
   16.4150   55.8719   12.4986 C   0  0  0  0  0  0  0  0  0  0  0  0
   16.7683   56.2992   11.2794 N   0  0  0  0  0  0  0  0  0  0  0  0
   17.3716   55.4920   10.3850 C   0  0  0  0  0  0  0  0  0  0  0  0
   17.7325   55.9750    9.1035 N   0  0  0  0  0  0  0  0  0  0  0  0
   17.6118   54.2227   10.7615 N   0  0  0  0  0  0  0  0  0  0  0  0
   17.2738   53.7490   11.9781 C   0  0  0  0  0  0  0  0  0  0  0  0
   17.5256   52.4584   12.3420 C   0  0  0  0  0  0  0  0  0  0  0  0
   18.1362   51.6548   11.4265 F   0  0  0  0  0  0  0  0  0  0  0  0
   17.1723   52.0411   13.5537 N   0  0  0  0  0  0  0  0  0  0  0  0
   16.5619   52.8381   14.4736 C   0  0  0  0  0  0  0  0  0  0  0  0
   16.2214   52.3171   15.7339 N   0  0  0  0  0  0  0  0  0  0  0  0
   15.5981   53.1461   16.7286 C   0  0  0  0  0  0  0  0  0  0  0  0
   14.4097   52.3852   17.2743 C   0  0  0  0  0  0  0  0  0  0  0  0
   14.7066   51.1151   17.6721 O   0  0  0  0  0  0  0  0  0  0  0  0
   15.9727   50.6609   17.4413 C   0  0  0  0  0  0  0  0  0  0  0  0
   16.4920   50.9407   16.0501 C   0  0  0  0  0  0  0  0  0  0  0  0
   16.3169   54.1114   14.1059 N   0  0  0  0  0  0  0  0  0  0  0  0
   16.6505   54.5945   12.8929 C   0  0  0  0  0  0  0  0  0  0  0  0
  1  2  1  0
  2  3  1  0
  3  4  1  0
  4  5  1  0
  5  6  1  0
  5  7  1  0
  7  8  1  0
  8  9  1  0
  9 10  1  0
 10 11  2  0
 11 12  1  0
 12 13  1  0
 12 14  2  0
 14 15  1  0
 15 16  2  0
 16 17  1  0
 16 18  1  0
 18 19  2  0
 19 20  1  0
 20 21  1  0
 21 22  1  0
 22 23  1  0
 23 24  1  0
 24 25  1  0
 19 26  1  0
 26 27  2  0
  8  2  1  0
 27 10  1  0
 27 15  1  0
 25 20  1  0
M  END
$$$$
