
     RDKit          3D

 30 33  0  0  0  0  0  0  0  0999 V2000
   15.3504   50.8040   16.8795 O   0  0  0  0  0  0  0  0  0  0  0  0
   15.7570   49.6910   16.4837 C   0  0  0  0  0  0  0  0  0  0  0  0
   15.6614   48.5735   17.3411 N   0  0  0  0  0  0  0  0  0  0  0  0
   14.9689   48.5815   18.6151 C   0  0  0  0  0  0  0  0  0  0  0  0
   15.9727   48.1382   19.6846 C   0  0  0  0  0  0  0  0  0  0  0  0
   15.3602   48.1993   21.0437 C   0  0  0  0  0  0  0  0  0  0  0  0
   13.8585   48.1559   21.0257 C   0  0  0  0  0  0  0  0  0  0  0  0
   13.3133   47.2638   19.9415 C   0  0  0  0  0  0  0  0  0  0  0  0
   13.8904   47.5166   18.5898 C   0  0  0  0  0  0  0  0  0  0  0  0
   16.3500   49.5054   15.1112 C   0  0  0  0  0  0  0  0  0  0  0  0
   17.6841   50.1586   15.0028 C   0  0  0  0  0  0  0  0  0  0  0  0
   17.6039   51.5869   14.4747 C   0  0  0  0  0  0  0  0  0  0  0  0
   16.3904   52.1697   14.9763 N   0  0  0  0  0  0  0  0  0  0  0  0
   16.3976   53.5970   14.9051 C   0  0  0  0  0  0  0  0  0  0  0  0
   16.5945   54.1056   13.5252 C   0  0  0  0  0  0  0  0  0  0  0  0
   17.4944   53.5289   12.6502 C   0  0  0  0  0  0  0  0  0  0  0  0
   17.6195   54.0653   11.3904 C   0  0  0  0  0  0  0  0  0  0  0  0
   16.8751   55.1594   10.9742 C   0  0  0  0  0  0  0  0  0  0  0  0
   15.9749   55.7386   11.8446 C   0  0  0  0  0  0  0  0  0  0  0  0
   15.1921   56.8536   11.4809 N   0  0  0  0  0  0  0  0  0  0  0  0
   15.0357   58.0383   12.2194 C   0  0  0  0  0  0  0  0  0  0  0  0
   15.7223   58.1696   13.2597 O   0  0  0  0  0  0  0  0  0  0  0  0
   14.1514   59.0871   11.8576 N   0  0  0  0  0  0  0  0  0  0  0  0
   13.9171   60.2727   12.6594 C   0  0  0  0  0  0  0  0  0  0  0  0
   13.8693   61.3590   11.6039 C   0  0  0  0  0  0  0  0  0  0  0  0
   13.1025   60.6877   10.4939 C   0  0  0  0  0  0  0  0  0  0  0  0
   13.3258   59.1990   10.6634 C   0  0  0  0  0  0  0  0  0  0  0  0
   15.8620   55.1877   13.1049 C   0  0  0  0  0  0  0  0  0  0  0  0
   15.2641   51.5998   14.2969 C   0  0  0  0  0  0  0  0  0  0  0  0
   15.3973   50.1022   14.1263 C   0  0  0  0  0  0  0  0  0  0  0  0
  1  2  2  0
  2  3  1  0
  3  4  1  0
  4  5  1  0
  5  6  1  0
  6  7  1  0
  7  8  1  0
  8  9  1  0
  2 10  1  0
 10 11  1  0
 11 12  1  0
 12 13  1  0
 13 14  1  0
 14 15  1  0
 15 16  2  0
 16 17  1  0
 17 18  2  0
 18 19  1  0
 19 20  1  0
 20 21  1  0
 21 22  2  0
 21 23  1  0
 23 24  1  0
 24 25  1  0
 25 26  1  0
 26 27  1  0
 19 28  2  0
 13 29  1  0
 29 30  1  0
  9  4  1  0
 30 10  1  0
 28 15  1  0
 27 23  1  0
M  END
$$$$
