
     RDKit          3D

 40 45  0  0  0  0  0  0  0  0999 V2000
  -10.8286   63.9227   30.8709 C   0  0  0  0  0  0  0  0  0  0  0  0
  -10.0609   62.6331   30.7703 C   0  0  0  0  0  0  0  0  0  0  0  0
  -10.5113   61.4184   30.6784 O   0  0  0  0  0  0  0  0  0  0  0  0
   -9.5299   60.5334   30.6071 C   0  0  0  0  0  0  0  0  0  0  0  0
   -9.7384   59.0835   30.4996 C   0  0  0  0  0  0  0  0  0  0  0  0
   -9.1995   58.4632   29.5204 O   0  0  0  0  0  0  0  0  0  0  0  0
  -10.4943   58.3527   31.4154 N   0  0  0  0  0  0  0  0  0  0  0  0
  -11.0767   58.9499   32.5631 C   0  0  0  0  0  0  0  0  0  0  0  0
  -11.1040   57.9559   33.6708 C   0  0  0  0  0  0  0  0  0  0  0  0
  -11.6694   58.3290   34.8694 C   0  0  0  0  0  0  0  0  0  0  0  0
  -11.7311   57.4566   35.9195 C   0  0  0  0  0  0  0  0  0  0  0  0
  -11.2273   56.1751   35.8069 C   0  0  0  0  0  0  0  0  0  0  0  0
  -10.6657   55.8252   34.5962 C   0  0  0  0  0  0  0  0  0  0  0  0
  -10.5922   56.6742   33.5380 C   0  0  0  0  0  0  0  0  0  0  0  0
   -9.9688   56.2295   32.2672 C   0  0  0  0  0  0  0  0  0  0  0  0
  -10.7161   56.9225   31.1607 C   0  0  1  0  0  0  0  0  0  0  0  0
  -12.1866   56.7411   31.1192 C   0  0  0  0  0  0  0  0  0  0  0  0
  -12.8785   56.6564   29.9166 N   0  0  0  0  0  0  0  0  0  0  0  0
  -13.2602   55.4495   29.3259 C   0  0  0  0  0  0  0  0  0  0  0  0
  -14.6540   54.9857   29.6891 C   0  0  0  0  0  0  0  0  0  0  0  0
  -15.4178   55.8710   30.4718 N   0  0  0  0  0  0  0  0  0  0  0  0
  -15.7371   55.4193   31.7952 C   0  0  0  0  0  0  0  0  0  0  0  0
  -15.2238   57.2524   30.3084 C   0  0  0  0  0  0  0  0  0  0  0  0
  -13.9033   57.6632   29.7450 C   0  0  0  0  0  0  0  0  0  0  0  0
   -8.3726   61.2133   30.6549 C   0  0  0  0  0  0  0  0  0  0  0  0
   -7.0111   60.6869   30.5722 C   0  0  0  0  0  0  0  0  0  0  0  0
   -5.8959   61.4562   30.4535 N   0  0  0  0  0  0  0  0  0  0  0  0
   -4.8188   60.6862   30.4299 C   0  0  0  0  0  0  0  0  0  0  0  0
   -3.4580   60.9644   30.3293 C   0  0  0  0  0  0  0  0  0  0  0  0
   -2.5206   59.9563   30.3329 C   0  0  0  0  0  0  0  0  0  0  0  0
   -1.0734   60.2427   30.2267 C   0  0  0  0  0  0  0  0  0  0  0  0
   -0.5035   59.5756   29.1641 F   0  0  0  0  0  0  0  0  0  0  0  0
   -0.8523   61.6164   30.1316 F   0  0  0  0  0  0  0  0  0  0  0  0
   -0.3884   59.8102   31.3628 F   0  0  0  0  0  0  0  0  0  0  0  0
   -2.9655   58.6626   30.4385 C   0  0  0  0  0  0  0  0  0  0  0  0
   -4.3068   58.3586   30.5394 C   0  0  0  0  0  0  0  0  0  0  0  0
   -5.2282   59.3791   30.5345 C   0  0  0  0  0  0  0  0  0  0  0  0
   -6.5951   59.4379   30.6195 N   0  0  0  0  0  0  0  0  0  0  0  0
   -8.6888   62.5848   30.7628 C   0  0  0  0  0  0  0  0  0  0  0  0
   -7.6947   63.6608   30.8471 C   0  0  0  0  0  0  0  0  0  0  0  0
  1  2  1  0
  2  3  1  0
  3  4  1  0
  4  5  1  0
  5  6  2  0
  5  7  1  0
  7  8  1  0
  8  9  1  0
  9 10  2  0
 10 11  1  0
 11 12  2  0
 12 13  1  0
 13 14  2  0
 14 15  1  0
 15 16  1  0
 16 17  1  1
 17 18  1  0
 18 19  1  0
 19 20  1  0
 20 21  1  0
 21 22  1  0
 21 23  1  0
 23 24  1  0
  4 25  2  0
 25 26  1  0
 26 27  2  0
 27 28  1  0
 28 29  2  0
 29 30  1  0
 30 31  1  0
 31 32  1  0
 31 33  1  0
 31 34  1  0
 30 35  2  0
 35 36  1  0
 36 37  2  0
 37 38  1  0
 25 39  1  0
 39 40  1  0
 39  2  2  0
 16  7  1  0
 24 18  1  0
 38 26  1  0
 14  9  1  0
 37 28  1  0
M  END
$$$$
