
     RDKit          3D

 23 24  0  0  0  0  0  0  0  0999 V2000
   15.8070   55.9653   14.8880 C   0  0  0  0  0  0  0  0  0  0  0  0
   15.8495   55.6996   13.4377 C   0  0  0  0  0  0  0  0  0  0  0  0
   14.9524   56.0914   12.4957 N   0  0  0  0  0  0  0  0  0  0  0  0
   15.3553   55.6500   11.3146 N   0  0  0  0  0  0  0  0  0  0  0  0
   14.6832   55.8481   10.0268 C   0  0  0  0  0  0  0  0  0  0  0  0
   16.4978   54.9737   11.4427 C   0  0  0  0  0  0  0  0  0  0  0  0
   17.3221   54.2949   10.3829 C   0  0  0  0  0  0  0  0  0  0  0  0
   16.8168   55.0001   12.7791 C   0  0  0  0  0  0  0  0  0  0  0  0
   18.0126   54.3689   13.3738 C   0  0  0  0  0  0  0  0  0  0  0  0
   17.8083   52.8502   13.3075 C   0  0  0  0  0  0  0  0  0  0  0  0
   17.4508   52.4270   14.6997 C   0  0  0  0  0  0  0  0  0  0  0  0
   17.3060   53.2401   15.6487 O   0  0  0  0  0  0  0  0  0  0  0  0
   17.2539   51.0408   15.0154 N   0  0  0  0  0  0  0  0  0  0  0  0
   17.0555   50.5856   16.3668 C   0  0  0  0  0  0  0  0  0  0  0  0
   15.9547   49.5648   16.5087 C   0  0  0  0  0  0  0  0  0  0  0  0
   16.1460   48.8227   17.7794 C   0  0  0  0  0  0  0  0  0  0  0  0
   17.2607   48.3266   18.0620 O   0  0  0  0  0  0  0  0  0  0  0  0
   15.0691   48.6720   18.6790 N   0  0  0  0  0  0  0  0  0  0  0  0
   13.7511   49.0637   18.2945 C   0  0  0  0  0  0  0  0  0  0  0  0
   12.6915   48.0927   18.7676 C   0  0  0  0  0  0  0  0  0  0  0  0
   13.2862   46.9289   19.4009 N   0  0  0  0  0  0  0  0  0  0  0  0
   14.1648   47.2973   20.4864 C   0  0  0  0  0  0  0  0  0  0  0  0
   15.3055   48.1214   19.9872 C   0  0  0  0  0  0  0  0  0  0  0  0
  1  2  1  0
  2  3  2  0
  3  4  1  0
  4  5  1  0
  4  6  1  0
  6  7  1  0
  6  8  2  0
  8  9  1  0
  9 10  1  0
 10 11  1  0
 11 12  2  0
 11 13  1  0
 13 14  1  0
 14 15  1  0
 15 16  1  0
 16 17  2  0
 16 18  1  0
 18 19  1  0
 19 20  1  0
 20 21  1  0
 21 22  1  0
 22 23  1  0
  8  2  1  0
 23 18  1  0
M  END
$$$$
