
     RDKit          3D

 33 37  0  0  0  0  0  0  0  0999 V2000
   14.3045  100.0706   56.8779 O   0  0  0  0  0  0  0  0  0  0  0  0
   13.7714   99.2918   55.9878 C   0  0  0  0  0  0  0  0  0  0  0  0
   12.5700   98.6139   56.4336 C   0  0  0  0  0  0  0  0  0  0  0  0
   11.9445   99.1420   57.6238 N   0  0  0  0  0  0  0  0  0  0  0  0
   11.9928   98.4227   58.7309 N   0  0  0  0  0  0  0  0  0  0  0  0
   11.4659   98.8048   59.8945 C   0  0  0  0  0  0  0  0  0  0  0  0
   11.4815   98.0565   61.0872 N   0  0  0  0  0  0  0  0  0  0  0  0
   12.2088   96.8595   61.1541 C   0  0  0  0  0  0  0  0  0  0  0  0
   13.4403   96.7068   60.5506 C   0  0  0  0  0  0  0  0  0  0  0  0
   14.1317   95.5239   60.6588 C   0  0  0  0  0  0  0  0  0  0  0  0
   13.6343   94.4276   61.3739 C   0  0  0  0  0  0  0  0  0  0  0  0
   12.3967   94.6067   61.9694 C   0  0  0  0  0  0  0  0  0  0  0  0
   11.7028   95.7997   61.8585 C   0  0  0  0  0  0  0  0  0  0  0  0
   10.8316  100.0367   59.9224 C   0  0  0  0  0  0  0  0  0  0  0  0
   10.2483  100.5177   61.0894 C   0  0  0  0  0  0  0  0  0  0  0  0
    9.6039  101.7372   61.1551 C   0  0  0  0  0  0  0  0  0  0  0  0
    9.5482  102.4937   60.0012 C   0  0  0  0  0  0  0  0  0  0  0  0
   10.1126  102.0564   58.8232 C   0  0  0  0  0  0  0  0  0  0  0  0
   10.7448  100.8363   58.8014 C   0  0  0  0  0  0  0  0  0  0  0  0
   11.3354  100.3329   57.6333 C   0  0  0  0  0  0  0  0  0  0  0  0
   11.2599  101.0554   56.6085 O   0  0  0  0  0  0  0  0  0  0  0  0
   14.4200   99.2266   54.7645 N   0  0  0  0  0  0  0  0  0  0  0  0
   15.3680  100.2541   54.3880 C   0  0  0  0  0  0  0  0  0  0  0  0
   16.0416   99.9667   53.0828 C   0  0  0  0  0  0  0  0  0  0  0  0
   15.0840   99.5588   52.0620 N   0  0  0  0  0  0  0  0  0  0  0  0
   15.3470   99.9184   50.6971 C   0  0  0  0  0  0  0  0  0  0  0  0
   16.1735  100.9708   50.3822 C   0  0  0  0  0  0  0  0  0  0  0  0
   16.4465  101.3240   49.0562 C   0  0  0  0  0  0  0  0  0  0  0  0
   15.8696  100.5938   48.0426 C   0  0  0  0  0  0  0  0  0  0  0  0
   15.0451   99.5437   48.3746 C   0  0  0  0  0  0  0  0  0  0  0  0
   14.7997   99.2266   49.6757 N   0  0  0  0  0  0  0  0  0  0  0  0
   13.9164   98.8320   52.4643 C   0  0  0  0  0  0  0  0  0  0  0  0
   14.1932   98.1708   53.8219 C   0  0  0  0  0  0  0  0  0  0  0  0
  1  2  2  0
  2  3  1  0
  3  4  1  0
  4  5  1  0
  5  6  2  0
  6  7  1  0
  7  8  1  0
  8  9  2  0
  9 10  1  0
 10 11  2  0
 11 12  1  0
 12 13  2  0
  6 14  1  0
 14 15  2  0
 15 16  1  0
 16 17  2  0
 17 18  1  0
 18 19  2  0
 19 20  1  0
 20 21  2  0
  2 22  1  0
 22 23  1  0
 23 24  1  0
 24 25  1  0
 25 26  1  0
 26 27  2  0
 27 28  1  0
 28 29  2  0
 29 30  1  0
 30 31  2  0
 25 32  1  0
 32 33  1  0
 20  4  1  0
 33 22  1  0
 13  8  1  0
 19 14  1  0
 31 26  1  0
M  END
$$$$
