
     RDKit          3D

 24 26  0  0  0  0  0  0  0  0999 V2000
   17.0654  101.3674   50.7086 C   0  0  0  0  0  0  0  0  0  0  0  0
   16.2141  101.0727   51.8984 C   0  0  0  0  0  0  0  0  0  0  0  0
   14.9817  100.4913   51.7295 C   0  0  0  0  0  0  0  0  0  0  0  0
   14.1889  100.2147   52.8111 C   0  0  0  0  0  0  0  0  0  0  0  0
   14.5904  100.5080   54.1347 C   0  0  0  0  0  0  0  0  0  0  0  0
   13.7087  100.1921   55.2354 C   0  0  0  0  0  0  0  0  0  0  0  0
   12.6192   99.5753   54.9679 O   0  0  0  0  0  0  0  0  0  0  0  0
   13.9551  100.5068   56.5562 N   0  0  0  0  0  0  0  0  0  0  0  0
   13.1974  100.1413   57.7119 C   0  0  0  0  0  0  0  0  0  0  0  0
   12.9632  101.1370   58.6608 C   0  0  0  0  0  0  0  0  0  0  0  0
   12.2356  100.8417   59.8002 C   0  0  0  0  0  0  0  0  0  0  0  0
   11.7338   99.5719   60.0171 C   0  0  0  0  0  0  0  0  0  0  0  0
   11.9459   98.5670   59.1029 C   0  0  0  0  0  0  0  0  0  0  0  0
   11.4252   97.2034   59.3034 C   0  0  0  0  0  0  0  0  0  0  0  0
   12.0238   96.5243   60.4785 C   0  0  0  0  0  0  0  0  0  0  0  0
   13.3866   96.4483   60.6977 C   0  0  0  0  0  0  0  0  0  0  0  0
   13.9060   95.8039   61.8093 C   0  0  0  0  0  0  0  0  0  0  0  0
   13.0919   95.2085   62.7489 C   0  0  0  0  0  0  0  0  0  0  0  0
   11.7322   95.2823   62.5335 C   0  0  0  0  0  0  0  0  0  0  0  0
   11.2096   95.9273   61.4207 C   0  0  0  0  0  0  0  0  0  0  0  0
   12.6858   98.9052   57.9643 C   0  0  0  0  0  0  0  0  0  0  0  0
   15.8233  101.0837   54.2295 C   0  0  0  0  0  0  0  0  0  0  0  0
   16.3396  101.4109   55.3207 O   0  0  0  0  0  0  0  0  0  0  0  0
   16.5984  101.3515   53.1406 N   0  0  0  0  0  0  0  0  0  0  0  0
  1  2  1  0
  2  3  2  0
  3  4  1  0
  4  5  2  0
  5  6  1  0
  6  7  2  0
  6  8  1  0
  8  9  1  0
  9 10  2  0
 10 11  1  0
 11 12  2  0
 12 13  1  0
 13 14  1  0
 14 15  1  0
 15 16  2  0
 16 17  1  0
 17 18  2  0
 18 19  1  0
 19 20  2  0
 13 21  2  0
  5 22  1  0
 22 23  2  0
 22 24  1  0
 24  2  1  0
 21  9  1  0
 20 15  1  0
M  END
$$$$
