
     RDKit          3D

 34 38  0  0  0  0  0  0  0  0999 V2000
   33.9823   80.5951   49.9575 O   0  0  0  0  0  0  0  0  0  0  0  0
   34.2733   81.8211   50.0051 C   0  0  0  0  0  0  0  0  0  0  0  0
   33.5434   82.6970   49.1973 N   0  0  0  0  0  0  0  0  0  0  0  0
   32.1610   82.4787   48.8235 C   0  0  0  0  0  0  0  0  0  0  0  0
   31.2491   83.6073   49.2159 C   0  0  0  0  0  0  0  0  0  0  0  0
   30.4520   83.4059   50.3697 N   0  0  0  0  0  0  0  0  0  0  0  0
   29.6400   82.2491   50.4196 C   0  0  0  0  0  0  0  0  0  0  0  0
   29.9105   81.6295   51.7729 C   0  0  0  0  0  0  0  0  0  0  0  0
   30.2501   82.8232   52.6321 C   0  0  0  0  0  0  0  0  0  0  0  0
   31.0098   83.6913   51.6341 C   0  0  0  0  0  0  0  0  0  0  0  0
   32.0324   82.0126   47.4399 C   0  0  0  0  0  0  0  0  0  0  0  0
   31.0232   81.1345   47.0990 C   0  0  0  0  0  0  0  0  0  0  0  0
   30.8959   80.6553   45.8134 C   0  0  0  0  0  0  0  0  0  0  0  0
   31.7744   81.0375   44.8195 C   0  0  0  0  0  0  0  0  0  0  0  0
   32.7756   81.9151   45.1801 C   0  0  0  0  0  0  0  0  0  0  0  0
   32.9176   82.4038   46.4593 C   0  0  0  0  0  0  0  0  0  0  0  0
   35.3497   82.2367   50.8986 C   0  0  0  0  0  0  0  0  0  0  0  0
   35.3115   83.4308   51.5864 C   0  0  0  0  0  0  0  0  0  0  0  0
   36.3282   83.8164   52.4249 C   0  0  0  0  0  0  0  0  0  0  0  0
   37.4548   82.9996   52.6135 C   0  0  0  0  0  0  0  0  0  0  0  0
   37.5053   81.8133   51.9369 C   0  0  0  0  0  0  0  0  0  0  0  0
   36.4546   81.4391   51.0852 C   0  0  0  0  0  0  0  0  0  0  0  0
   38.7592   81.1637   52.2882 C   0  0  0  0  0  0  0  0  0  0  0  0
   39.1116   80.0360   51.8255 O   0  0  0  0  0  0  0  0  0  0  0  0
   39.4501   82.0022   53.1929 N   0  0  0  0  0  0  0  0  0  0  0  0
   40.7800   81.7123   53.7740 C   0  0  0  0  0  0  0  0  0  0  0  0
   41.7853   82.3189   52.8554 C   0  0  0  0  0  0  0  0  0  0  0  0
   43.1550   82.4549   53.4923 C   0  0  0  0  0  0  0  0  0  0  0  0
   44.0489   81.2898   53.2078 C   0  0  0  0  0  0  0  0  0  0  0  0
   45.0824   81.4992   52.1732 C   0  0  0  0  0  0  0  0  0  0  0  0
   45.6089   82.8174   52.0590 N   0  0  0  0  0  0  0  0  0  0  0  0
   45.2595   83.6885   53.1552 C   0  0  0  0  0  0  0  0  0  0  0  0
   43.7512   83.7921   53.2146 C   0  0  0  0  0  0  0  0  0  0  0  0
   38.6624   83.1556   53.4397 C   0  0  0  0  0  0  0  0  0  0  0  0
  1  2  2  0
  2  3  1  0
  3  4  1  0
  4  5  1  0
  5  6  1  0
  6  7  1  0
  7  8  1  0
  8  9  1  0
  9 10  1  0
  4 11  1  0
 11 12  2  0
 12 13  1  0
 13 14  2  0
 14 15  1  0
 15 16  2  0
  2 17  1  0
 17 18  2  0
 18 19  1  0
 19 20  2  0
 20 21  1  0
 21 22  2  0
 21 23  1  0
 23 24  2  0
 23 25  1  0
 25 26  1  0
 26 27  1  0
 27 28  1  0
 28 29  1  0
 29 30  1  0
 30 31  1  0
 31 32  1  0
 32 33  1  0
 25 34  1  0
 10  6  1  0
 16 11  1  0
 22 17  1  0
 33 28  1  0
 34 20  1  0
M  END
$$$$
