
     RDKit          3D

 23 25  0  0  0  0  0  0  0  0999 V2000
   15.6785   53.7014   15.6232 O   0  0  0  0  0  0  0  0  0  0  0  0
   16.7563   53.7932   14.9404 C   0  0  0  0  0  0  0  0  0  0  0  0
   17.2130   55.1691   14.6618 C   0  0  0  0  0  0  0  0  0  0  0  0
   16.0850   55.8658   13.9695 C   0  0  0  0  0  0  0  0  0  0  0  0
   15.9719   57.2438   13.7504 C   0  0  0  0  0  0  0  0  0  0  0  0
   14.8048   57.5132   13.1083 C   0  0  0  0  0  0  0  0  0  0  0  0
   14.1762   56.2906   12.9214 C   0  0  0  0  0  0  0  0  0  0  0  0
   14.9718   55.3375   13.4476 N   0  0  0  0  0  0  0  0  0  0  0  0
   17.3530   52.5953   14.5512 N   0  0  0  0  0  0  0  0  0  0  0  0
   16.7001   51.3168   14.7335 C   0  0  0  0  0  0  0  0  0  0  0  0
   16.1863   50.6077   13.6854 C   0  0  0  0  0  0  0  0  0  0  0  0
   15.5896   49.4045   13.8910 C   0  0  0  0  0  0  0  0  0  0  0  0
   15.5003   48.8965   15.1678 C   0  0  0  0  0  0  0  0  0  0  0  0
   15.9930   49.5568   16.2586 C   0  0  0  0  0  0  0  0  0  0  0  0
   15.8968   49.0388   17.6274 C   0  0  0  0  0  0  0  0  0  0  0  0
   16.9168   49.0379   18.3505 O   0  0  0  0  0  0  0  0  0  0  0  0
   14.6867   48.5444   18.1450 N   0  0  0  0  0  0  0  0  0  0  0  0
   13.4235   48.8780   17.5560 C   0  0  0  0  0  0  0  0  0  0  0  0
   12.3134   48.8274   18.5851 C   0  0  0  0  0  0  0  0  0  0  0  0
   12.7565   49.0903   19.9832 C   0  0  0  0  0  0  0  0  0  0  0  0
   14.0205   48.4413   20.4161 C   0  0  0  0  0  0  0  0  0  0  0  0
   14.6973   47.6749   19.2924 C   0  0  0  0  0  0  0  0  0  0  0  0
   16.6020   50.7899   16.0120 C   0  0  0  0  0  0  0  0  0  0  0  0
  1  2  2  0
  2  3  1  0
  3  4  1  0
  4  5  2  0
  5  6  1  0
  6  7  2  0
  7  8  1  0
  2  9  1  0
  9 10  1  0
 10 11  2  0
 11 12  1  0
 12 13  2  0
 13 14  1  0
 14 15  1  0
 15 16  2  0
 15 17  1  0
 17 18  1  0
 18 19  1  0
 19 20  1  0
 20 21  1  0
 21 22  1  0
 14 23  2  0
  8  4  1  0
 23 10  1  0
 22 17  1  0
M  END
$$$$
