
     RDKit          3D

 23 25  0  0  0  0  0  0  0  0999 V2000
   10.1977   98.0662   61.0110 O   0  0  0  0  0  0  0  0  0  0  0  0
   11.0290   97.5284   60.2274 C   0  0  0  0  0  0  0  0  0  0  0  0
   11.4148   96.1994   60.5267 N   0  0  0  0  0  0  0  0  0  0  0  0
   10.9204   95.3670   61.5674 C   0  0  0  0  0  0  0  0  0  0  0  0
   11.9202   94.5877   62.3437 C   0  0  0  0  0  0  0  0  0  0  0  0
   11.5528   94.5263   63.8129 C   0  0  0  0  0  0  0  0  0  0  0  0
   12.3701   93.6377   64.5063 O   0  0  0  0  0  0  0  0  0  0  0  0
   13.3245   93.0549   63.6771 C   0  0  0  0  0  0  0  0  0  0  0  0
   14.0463   94.0363   62.8119 C   0  0  0  0  0  0  0  0  0  0  0  0
   13.2204   95.0008   62.2444 O   0  0  0  0  0  0  0  0  0  0  0  0
   11.5139   98.3030   59.1021 C   0  0  0  0  0  0  0  0  0  0  0  0
   11.1510   99.6083   58.8950 C   0  0  0  0  0  0  0  0  0  0  0  0
   11.6427  100.3201   57.7949 C   0  0  0  0  0  0  0  0  0  0  0  0
   12.5006   99.7210   56.9002 C   0  0  0  0  0  0  0  0  0  0  0  0
   12.9855  100.4147   55.8198 O   0  0  0  0  0  0  0  0  0  0  0  0
   14.3226  100.5576   55.5261 C   0  0  0  0  0  0  0  0  0  0  0  0
   15.2753   99.9941   56.3486 C   0  0  0  0  0  0  0  0  0  0  0  0
   16.6231  100.1162   56.0866 C   0  0  0  0  0  0  0  0  0  0  0  0
   16.9940  100.8271   54.9646 C   0  0  0  0  0  0  0  0  0  0  0  0
   16.0948  101.3903   54.1397 N   0  0  0  0  0  0  0  0  0  0  0  0
   14.7876  101.2517   54.4250 C   0  0  0  0  0  0  0  0  0  0  0  0
   12.8704   98.4114   57.0998 C   0  0  0  0  0  0  0  0  0  0  0  0
   12.3699   97.7166   58.2031 C   0  0  0  0  0  0  0  0  0  0  0  0
  1  2  2  0
  2  3  1  0
  3  4  1  0
  4  5  1  0
  5  6  1  0
  6  7  1  0
  7  8  1  0
  8  9  1  0
  9 10  1  0
  2 11  1  0
 11 12  2  0
 12 13  1  0
 13 14  2  0
 14 15  1  0
 15 16  1  0
 16 17  2  0
 17 18  1  0
 18 19  2  0
 19 20  1  0
 20 21  2  0
 14 22  1  0
 22 23  2  0
 10  5  1  0
 23 11  1  0
 21 16  1  0
M  END
$$$$
