
     RDKit          3D

 36 40  0  0  0  0  0  0  0  0999 V2000
   17.9121   94.7095   63.6296 C   0  0  0  0  0  0  0  0  0  0  0  0
   16.8716   93.7588   63.3992 O   0  0  0  0  0  0  0  0  0  0  0  0
   15.6046   94.1844   63.0737 C   0  0  0  0  0  0  0  0  0  0  0  0
   15.3384   95.0695   62.0580 C   0  0  0  0  0  0  0  0  0  0  0  0
   14.0731   95.5101   61.7150 C   0  0  0  0  0  0  0  0  0  0  0  0
   13.8702   96.3779   60.7119 N   0  0  0  0  0  0  0  0  0  0  0  0
   12.6327   96.8235   60.3596 C   0  0  0  0  0  0  0  0  0  0  0  0
   12.4727   97.7121   59.3046 N   0  0  0  0  0  0  0  0  0  0  0  0
   13.5675   98.5452   58.8097 C   0  0  0  0  0  0  0  0  0  0  0  0
   13.8647   98.4062   57.3584 C   0  0  0  0  0  0  0  0  0  0  0  0
   13.1781   99.2535   56.3368 C   0  0  0  0  0  0  0  0  0  0  0  0
   11.6951   99.0379   56.2803 N   0  0  0  0  0  0  0  0  0  0  0  0
   11.3824   98.4135   55.0237 C   0  0  0  0  0  0  0  0  0  0  0  0
   11.2863   98.4384   57.4145 C   0  0  0  0  0  0  0  0  0  0  0  0
   11.1096   97.8042   58.6731 C   0  0  0  0  0  0  0  0  0  0  0  0
   11.6167   96.3409   61.0787 N   0  0  0  0  0  0  0  0  0  0  0  0
   11.7471   95.4561   62.1110 C   0  0  0  0  0  0  0  0  0  0  0  0
   10.6254   94.9634   62.8106 N   0  0  0  0  0  0  0  0  0  0  0  0
    9.2602   95.0977   62.3423 C   0  0  0  0  0  0  0  0  0  0  0  0
    9.1343   96.2955   61.4295 C   0  0  0  0  0  0  0  0  0  0  0  0
    7.6222   96.5628   61.3131 C   0  0  0  0  0  0  0  0  0  0  0  0
    6.9547   95.3841   60.8757 N   0  0  0  0  0  0  0  0  0  0  0  0
    5.7136   95.0630   61.4848 C   0  0  0  0  0  0  0  0  0  0  0  0
    4.5163   95.6562   60.8242 C   0  0  0  0  0  0  0  0  0  0  0  0
    3.2601   95.3386   61.2707 C   0  0  0  0  0  0  0  0  0  0  0  0
    2.1448   95.8967   60.6483 C   0  0  0  0  0  0  0  0  0  0  0  0
    2.3131   96.7613   59.5900 C   0  0  0  0  0  0  0  0  0  0  0  0
    3.5777   97.0895   59.1297 C   0  0  0  0  0  0  0  0  0  0  0  0
    4.6795   96.5398   59.7436 C   0  0  0  0  0  0  0  0  0  0  0  0
    7.7672   94.2746   60.5289 C   0  0  0  0  0  0  0  0  0  0  0  0
    8.7870   93.8820   61.5802 C   0  0  0  0  0  0  0  0  0  0  0  0
   13.0061   95.0154   62.4564 C   0  0  0  0  0  0  0  0  0  0  0  0
   13.2697   94.1257   63.4779 C   0  0  0  0  0  0  0  0  0  0  0  0
   14.5375   93.6885   63.8173 C   0  0  0  0  0  0  0  0  0  0  0  0
   14.7456   92.7878   64.8602 O   0  0  0  0  0  0  0  0  0  0  0  0
   13.6929   91.8989   65.1729 C   0  0  0  0  0  0  0  0  0  0  0  0
  1  2  1  0
  2  3  1  0
  3  4  2  0
  4  5  1  0
  5  6  2  0
  6  7  1  0
  7  8  1  0
  8  9  1  0
  9 10  1  0
 10 11  1  0
 11 12  1  0
 12 13  1  0
 12 14  1  0
 14 15  1  0
  7 16  2  0
 16 17  1  0
 17 18  1  0
 18 19  1  0
 19 20  1  0
 20 21  1  0
 21 22  1  0
 22 23  1  0
 23 24  1  0
 24 25  2  0
 25 26  1  0
 26 27  2  0
 27 28  1  0
 28 29  2  0
 22 30  1  0
 30 31  1  0
 17 32  2  0
 32 33  1  0
 33 34  2  0
 34 35  1  0
 35 36  1  0
 34  3  1  0
 32  5  1  0
 15  8  1  0
 31 19  1  0
 29 24  1  0
M  END
$$$$
