
     RDKit          3D

 21 23  0  0  0  0  0  0  0  0999 V2000
   13.1759  100.5241   56.8087 C   0  0  0  0  0  0  0  0  0  0  0  0
   12.9604   99.6640   57.9142 O   0  0  0  0  0  0  0  0  0  0  0  0
   11.8299   99.7663   58.7153 C   0  0  0  0  0  0  0  0  0  0  0  0
   10.9295  100.7950   58.6092 C   0  0  0  0  0  0  0  0  0  0  0  0
    9.8109  100.8870   59.4091 C   0  0  0  0  0  0  0  0  0  0  0  0
    9.6201   99.8899   60.3413 C   0  0  0  0  0  0  0  0  0  0  0  0
   10.5245   98.8364   60.4638 C   0  0  0  0  0  0  0  0  0  0  0  0
   11.6319   98.7734   59.6499 C   0  0  0  0  0  0  0  0  0  0  0  0
   12.3610   97.6410   59.9713 C   0  0  0  0  0  0  0  0  0  0  0  0
   11.6781   97.0177   60.9935 C   0  0  0  0  0  0  0  0  0  0  0  0
   12.0841   95.7896   61.6424 C   0  0  0  0  0  0  0  0  0  0  0  0
   11.2406   94.9799   62.1199 O   0  0  0  0  0  0  0  0  0  0  0  0
   13.4399   95.4493   61.7666 N   0  0  0  0  0  0  0  0  0  0  0  0
   13.9303   94.2477   62.3996 C   0  0  0  0  0  0  0  0  0  0  0  0
   15.4444   94.1398   62.3084 C   0  0  0  0  0  0  0  0  0  0  0  0
   15.8039   92.7420   62.7002 C   0  0  0  0  0  0  0  0  0  0  0  0
   15.0151   92.1448   63.7856 C   0  0  0  0  0  0  0  0  0  0  0  0
   14.0293   92.9584   64.4958 C   0  0  0  0  0  0  0  0  0  0  0  0
   13.6404   94.2585   63.8786 C   0  0  0  0  0  0  0  0  0  0  0  0
   10.5859   97.7574   61.2639 N   0  0  0  0  0  0  0  0  0  0  0  0
    9.6034   97.4387   62.2803 C   0  0  0  0  0  0  0  0  0  0  0  0
  1  2  1  0
  2  3  1  0
  3  4  2  0
  4  5  1  0
  5  6  2  0
  6  7  1  0
  7  8  2  0
  8  9  1  0
  9 10  2  0
 10 11  1  0
 11 12  2  0
 11 13  1  0
 13 14  1  0
 14 15  1  0
 15 16  1  0
 16 17  1  0
 17 18  1  0
 18 19  1  0
 10 20  1  0
 20 21  1  0
  8  3  1  0
 19 14  1  0
 20  7  1  0
M  END
$$$$
