
     RDKit          3D

 28 31  0  0  0  0  0  0  0  0999 V2000
   11.4649   59.8862   13.2432 O   0  0  0  0  0  0  0  0  0  0  0  0
   12.2823   59.1698   12.3704 C   0  0  0  0  0  0  0  0  0  0  0  0
   13.7232   59.6941   12.4455 C   0  0  0  0  0  0  0  0  0  0  0  0
   14.5283   58.7457   11.5775 C   0  0  0  0  0  0  0  0  0  0  0  0
   14.6591   57.4604   12.1263 N   0  0  0  0  0  0  0  0  0  0  0  0
   15.9173   57.1456   12.6874 C   0  0  0  0  0  0  0  0  0  0  0  0
   16.4972   55.8164   12.3967 C   0  0  0  0  0  0  0  0  0  0  0  0
   16.4320   54.8429   13.4175 C   0  0  0  0  0  0  0  0  0  0  0  0
   16.9490   53.5834   13.2793 C   0  0  0  0  0  0  0  0  0  0  0  0
   16.8808   52.5944   14.3213 C   0  0  0  0  0  0  0  0  0  0  0  0
   16.8274   51.7774   15.2079 C   0  0  0  0  0  0  0  0  0  0  0  0
   16.7806   50.8169   16.2719 C   0  0  0  0  0  0  0  0  0  0  0  0
   17.6589   49.7792   16.4988 C   0  0  0  0  0  0  0  0  0  0  0  0
   17.2590   49.1034   17.6146 N   0  0  0  0  0  0  0  0  0  0  0  0
   16.1659   49.6930   18.0772 N   0  0  0  0  0  0  0  0  0  0  0  0
   15.4708   49.2301   19.2614 C   0  0  0  0  0  0  0  0  0  0  0  0
   14.4803   48.1273   18.9203 C   0  0  0  0  0  0  0  0  0  0  0  0
   13.5062   47.9686   20.0747 C   0  0  0  0  0  0  0  0  0  0  0  0
   14.2295   48.2474   21.3081 N   0  0  0  0  0  0  0  0  0  0  0  0
   15.5928   47.7819   21.2181 C   0  0  0  0  0  0  0  0  0  0  0  0
   16.3764   48.7211   20.3336 C   0  0  0  0  0  0  0  0  0  0  0  0
   15.8457   50.7428   17.2815 C   0  0  0  0  0  0  0  0  0  0  0  0
   17.5537   53.2965   12.0659 C   0  0  0  0  0  0  0  0  0  0  0  0
   17.6369   54.2126   11.0511 C   0  0  0  0  0  0  0  0  0  0  0  0
   17.1064   55.4718   11.2212 C   0  0  0  0  0  0  0  0  0  0  0  0
   17.1943   56.3298   10.1706 F   0  0  0  0  0  0  0  0  0  0  0  0
   13.6255   57.1621   13.1122 C   0  0  0  0  0  0  0  0  0  0  0  0
   12.2925   57.7222   12.7097 C   0  0  0  0  0  0  0  0  0  0  0  0
  1  2  1  0
  2  3  1  0
  3  4  1  0
  4  5  1  0
  5  6  1  0
  6  7  1  0
  7  8  2  0
  8  9  1  0
  9 10  1  0
 10 11  3  0
 11 12  1  0
 12 13  1  0
 13 14  2  0
 14 15  1  0
 15 16  1  0
 16 17  1  0
 17 18  1  0
 18 19  1  0
 19 20  1  0
 20 21  1  0
 15 22  1  0
  9 23  2  0
 23 24  1  0
 24 25  2  0
 25 26  1  0
  5 27  1  0
 27 28  1  0
 28  2  1  0
 25  7  1  0
 22 12  2  0
 21 16  1  0
M  END
$$$$
