
     RDKit          3D

 23 26  0  0  0  0  0  0  0  0999 V2000
   10.6848   64.1446   11.6371 C   0  0  0  0  0  0  0  0  0  0  0  0
   11.3946   62.8631   11.8748 C   0  0  0  0  0  0  0  0  0  0  0  0
   11.3617   61.7400   11.6490 N   0  0  0  0  0  0  0  0  0  0  0  0
   12.1970   60.7754   11.9854 C   0  0  0  0  0  0  0  0  0  0  0  0
   11.9965   59.3388   11.6085 C   0  0  0  0  0  0  0  0  0  0  0  0
   13.2670   61.1644   12.7136 C   0  0  0  0  0  0  0  0  0  0  0  0
   14.4528   60.4355   13.2152 C   0  0  0  0  0  0  0  0  0  0  0  0
   15.2970   61.0431   13.9349 O   0  0  0  0  0  0  0  0  0  0  0  0
   14.6400   59.0940   12.9068 N   0  0  0  0  0  0  0  0  0  0  0  0
   16.0252   58.5863   12.8990 C   0  0  0  0  0  0  0  0  0  0  0  0
   15.9847   57.4418   13.9289 C   0  0  0  0  0  0  0  0  0  0  0  0
   15.2030   56.3242   13.3351 C   0  0  0  0  0  0  0  0  0  0  0  0
   14.2750   55.6218   14.2946 C   0  0  0  0  0  0  0  0  0  0  0  0
   14.4658   54.1569   14.0950 C   0  0  0  0  0  0  0  0  0  0  0  0
   15.7239   54.0431   13.3225 C   0  0  0  0  0  0  0  0  0  0  0  0
   16.4914   52.9207   13.0053 C   0  0  0  0  0  0  0  0  0  0  0  0
   17.6348   53.0806   12.2859 C   0  0  0  0  0  0  0  0  0  0  0  0
   18.0835   54.3078   11.8475 C   0  0  0  0  0  0  0  0  0  0  0  0
   17.3405   55.4320   12.1494 C   0  0  0  0  0  0  0  0  0  0  0  0
   16.1558   55.2713   12.8937 C   0  0  0  0  0  0  0  0  0  0  0  0
   14.3506   56.8110   12.1792 C   0  0  0  0  0  0  0  0  0  0  0  0
   13.6554   58.1189   12.5379 C   0  0  0  0  0  0  0  0  0  0  0  0
   13.0217   62.9281   12.8914 S   0  0  0  0  0  0  0  0  0  0  0  0
  1  2  1  0
  2  3  2  0
  3  4  1  0
  4  5  1  0
  4  6  2  0
  6  7  1  0
  7  8  2  0
  7  9  1  0
  9 10  1  0
 10 11  1  0
 11 12  1  0
 12 13  1  0
 13 14  1  0
 14 15  1  0
 15 16  2  0
 16 17  1  0
 17 18  2  0
 18 19  1  0
 19 20  2  0
 12 21  1  0
 21 22  1  0
  6 23  1  0
 23  2  1  0
 22  9  1  0
 20 12  1  0
 20 15  1  0
M  END
$$$$
