
     RDKit          3D

 35 39  0  0  0  0  0  0  0  0999 V2000
   12.1553   92.1663   64.2551 C   0  0  0  0  0  0  0  0  0  0  0  0
   13.0742   93.1139   63.5343 C   0  0  0  0  0  0  0  0  0  0  0  0
   14.4076   93.1746   63.7941 C   0  0  0  0  0  0  0  0  0  0  0  0
   15.2653   94.0392   63.1401 C   0  0  0  0  0  0  0  0  0  0  0  0
   14.7050   94.8684   62.1805 C   0  0  0  0  0  0  0  0  0  0  0  0
   13.3627   94.8144   61.9119 C   0  0  0  0  0  0  0  0  0  0  0  0
   12.5359   93.9620   62.5618 C   0  0  0  0  0  0  0  0  0  0  0  0
   11.0476   93.8656   62.2909 C   0  0  0  0  0  0  0  0  0  0  0  0
   10.4880   95.1479   62.0430 N   0  0  0  0  0  0  0  0  0  0  0  0
    9.0734   95.2488   62.0383 C   0  0  0  0  0  0  0  0  0  0  0  0
    8.4780   96.2269   63.0124 C   0  0  0  0  0  0  0  0  0  0  0  0
    7.4981   95.6532   63.8174 O   0  0  0  0  0  0  0  0  0  0  0  0
   11.1286   95.9242   61.0607 C   0  0  0  0  0  0  0  0  0  0  0  0
   10.9280   95.4449   59.6201 C   0  0  0  0  0  0  0  0  0  0  0  0
   11.2885   96.5998   58.7071 C   0  0  0  0  0  0  0  0  0  0  0  0
   12.4543   97.2724   58.9971 N   0  0  0  0  0  0  0  0  0  0  0  0
   13.3558   97.6919   57.9961 C   0  0  0  0  0  0  0  0  0  0  0  0
   13.0996   98.9703   57.2723 C   0  0  0  0  0  0  0  0  0  0  0  0
   13.3649   98.9654   55.8187 C   0  0  0  0  0  0  0  0  0  0  0  0
   14.4151   99.9376   55.4210 C   0  0  0  0  0  0  0  0  0  0  0  0
   15.1747  100.7510   56.2089 C   0  0  0  0  0  0  0  0  0  0  0  0
   15.9895  101.4746   55.4220 N   0  0  0  0  0  0  0  0  0  0  0  0
   15.7963  101.1672   54.1227 C   0  0  0  0  0  0  0  0  0  0  0  0
   16.3486  101.5958   52.9342 C   0  0  0  0  0  0  0  0  0  0  0  0
   15.8822  101.0309   51.7660 C   0  0  0  0  0  0  0  0  0  0  0  0
   14.9014  100.0676   51.7123 C   0  0  0  0  0  0  0  0  0  0  0  0
   14.4098   99.4710   50.5249 N   0  0  0  0  0  0  0  0  0  0  0  0
   13.4999   98.4860   50.4658 C   0  0  0  0  0  0  0  0  0  0  0  0
   13.2712   98.1697   49.1791 N   0  0  0  0  0  0  0  0  0  0  0  0
   14.0209   98.9370   48.4079 N   0  0  0  0  0  0  0  0  0  0  0  0
   14.7214   99.7382   49.2460 C   0  0  0  0  0  0  0  0  0  0  0  0
   14.3745   99.6677   52.9389 C   0  0  0  0  0  0  0  0  0  0  0  0
   14.7988  100.1933   54.1270 C   0  0  0  0  0  0  0  0  0  0  0  0
   13.0812   97.1271   60.2522 C   0  0  0  0  0  0  0  0  0  0  0  0
   12.6287   96.0519   61.1641 C   0  0  0  0  0  0  0  0  0  0  0  0
  1  2  1  0
  2  3  2  0
  3  4  1  0
  4  5  2  0
  5  6  1  0
  6  7  2  0
  7  8  1  0
  8  9  1  0
  9 10  1  0
 10 11  1  0
 11 12  1  0
  9 13  1  0
 13 14  1  0
 14 15  1  0
 15 16  1  0
 16 17  1  0
 17 18  1  0
 18 19  1  0
 19 20  1  0
 20 21  2  0
 21 22  1  0
 22 23  1  0
 23 24  2  0
 24 25  1  0
 25 26  2  0
 26 27  1  0
 27 28  1  0
 28 29  2  0
 29 30  1  0
 30 31  2  0
 26 32  1  0
 32 33  2  0
 16 34  1  0
 34 35  1  0
  7  2  1  0
 35 13  1  0
 33 20  1  0
 33 23  1  0
 31 27  1  0
M  END
$$$$
