
     RDKit          3D

 34 39  0  0  0  0  0  0  0  0999 V2000
   15.5551   95.2921   61.9806 F   0  0  0  0  0  0  0  0  0  0  0  0
   15.0378   94.7576   63.1234 C   0  0  0  0  0  0  0  0  0  0  0  0
   15.7782   94.6934   64.2812 C   0  0  0  0  0  0  0  0  0  0  0  0
   15.1610   94.1344   65.3797 C   0  0  0  0  0  0  0  0  0  0  0  0
   13.8681   93.6541   65.3550 C   0  0  0  0  0  0  0  0  0  0  0  0
   13.1600   93.7368   64.1760 C   0  0  0  0  0  0  0  0  0  0  0  0
   13.7303   94.2834   63.0583 C   0  0  0  0  0  0  0  0  0  0  0  0
   12.9405   94.3846   61.8075 C   0  0  0  0  0  0  0  0  0  0  0  0
   12.8394   95.7014   61.2627 N   0  0  0  0  0  0  0  0  0  0  0  0
   11.9347   96.1526   60.2864 C   0  0  0  0  0  0  0  0  0  0  0  0
   10.7599   95.5383   60.1367 N   0  0  0  0  0  0  0  0  0  0  0  0
    9.8469   95.9273   59.2096 C   0  0  0  0  0  0  0  0  0  0  0  0
   10.1131   96.9756   58.3926 C   0  0  0  0  0  0  0  0  0  0  0  0
    9.1682   97.4201   57.3935 C   0  0  0  0  0  0  0  0  0  0  0  0
    7.8238   97.1153   57.4067 C   0  0  0  0  0  0  0  0  0  0  0  0
    6.9634   97.5658   56.4265 C   0  0  0  0  0  0  0  0  0  0  0  0
    7.4316   98.3334   55.4092 N   0  0  0  0  0  0  0  0  0  0  0  0
    8.7408   98.6548   55.3589 C   0  0  0  0  0  0  0  0  0  0  0  0
    9.6181   98.2119   56.3331 C   0  0  0  0  0  0  0  0  0  0  0  0
   11.3209   97.6593   58.4977 C   0  0  0  0  0  0  0  0  0  0  0  0
   11.8746   98.6999   57.8653 N   0  0  0  0  0  0  0  0  0  0  0  0
   13.0921   98.9533   58.3789 C   0  0  0  0  0  0  0  0  0  0  0  0
   14.0496  100.0331   57.9585 C   0  0  0  0  0  0  0  0  0  0  0  0
   14.2029   99.9776   56.4748 C   0  0  0  0  0  0  0  0  0  0  0  0
   14.0588  101.0772   55.6830 C   0  0  0  0  0  0  0  0  0  0  0  0
   14.2119  100.9634   54.3233 C   0  0  0  0  0  0  0  0  0  0  0  0
   14.5139   99.7384   53.7305 C   0  0  0  0  0  0  0  0  0  0  0  0
   14.6576   98.6319   54.5405 C   0  0  0  0  0  0  0  0  0  0  0  0
   14.5013   98.7610   55.9025 C   0  0  0  0  0  0  0  0  0  0  0  0
   13.2838   98.0483   59.3443 N   0  0  0  0  0  0  0  0  0  0  0  0
   12.2091   97.2170   59.4595 C   0  0  0  0  0  0  0  0  0  0  0  0
   11.8199   93.1690   64.4515 C   0  0  0  0  0  0  0  0  0  0  0  0
   11.7201   93.4379   65.9555 C   0  0  0  0  0  0  0  0  0  0  0  0
   13.0527   93.0554   66.3383 O   0  0  0  0  0  0  0  0  0  0  0  0
  1  2  1  0
  2  3  2  0
  3  4  1  0
  4  5  2  0
  5  6  1  0
  6  7  2  0
  7  8  1  0
  8  9  1  0
  9 10  1  0
 10 11  2  0
 11 12  1  0
 12 13  2  0
 13 14  1  0
 14 15  2  0
 15 16  1  0
 16 17  2  0
 17 18  1  0
 18 19  2  0
 13 20  1  0
 20 21  1  0
 21 22  2  0
 22 23  1  0
 23 24  1  0
 24 25  2  0
 25 26  1  0
 26 27  2  0
 27 28  1  0
 28 29  2  0
 22 30  1  0
 30 31  1  0
  6 32  1  0
 32 33  1  0
 33 34  1  0
  7  2  1  0
 31 10  1  0
 34  5  1  0
 19 14  1  0
 31 20  2  0
 29 24  1  0
M  END
$$$$
