
     RDKit          3D

 29 31  0  0  0  0  0  0  0  0999 V2000
   14.7554   48.5667   20.0727 C   0  0  0  0  0  0  0  0  0  0  0  0
   13.7707   49.2016   19.2849 O   0  0  0  0  0  0  0  0  0  0  0  0
   13.9714   49.3510   17.9115 C   0  0  0  0  0  0  0  0  0  0  0  0
   13.0549   48.8538   17.0078 C   0  0  0  0  0  0  0  0  0  0  0  0
   13.2445   48.9967   15.6487 C   0  0  0  0  0  0  0  0  0  0  0  0
   14.3667   49.6457   15.1996 C   0  0  0  0  0  0  0  0  0  0  0  0
   15.2951   50.1492   16.1197 C   0  0  0  0  0  0  0  0  0  0  0  0
   16.4202   50.8013   15.5414 N   0  0  0  0  0  0  0  0  0  0  0  0
   17.6390   50.6351   16.0756 C   0  0  0  0  0  0  0  0  0  0  0  0
   17.7355   49.8818   17.1031 O   0  0  0  0  0  0  0  0  0  0  0  0
   18.7326   51.2280   15.5670 N   0  0  0  0  0  0  0  0  0  0  0  0
   20.0212   51.0084   16.1893 C   0  0  0  0  0  0  0  0  0  0  0  0
   20.6112   52.2837   16.7421 C   0  0  0  0  0  0  0  0  0  0  0  0
   20.1230   52.4340   18.1682 C   0  0  0  0  0  0  0  0  0  0  0  0
   19.3247   53.5723   18.2852 O   0  0  0  0  0  0  0  0  0  0  0  0
   18.5765   52.0129   14.4839 C   0  0  0  0  0  0  0  0  0  0  0  0
   19.5608   52.5919   13.9636 O   0  0  0  0  0  0  0  0  0  0  0  0
   17.3646   52.2320   13.8834 N   0  0  0  0  0  0  0  0  0  0  0  0
   17.2903   53.0333   12.6910 C   0  0  0  0  0  0  0  0  0  0  0  0
   16.8612   54.4025   12.7820 C   0  0  0  0  0  0  0  0  0  0  0  0
   16.5278   54.8787   14.0649 C   0  0  0  0  0  0  0  0  0  0  0  0
   16.0920   56.1670   14.2868 C   0  0  0  0  0  0  0  0  0  0  0  0
   15.9710   57.0414   13.2247 C   0  0  0  0  0  0  0  0  0  0  0  0
   16.2879   56.6078   11.9753 C   0  0  0  0  0  0  0  0  0  0  0  0
   16.7290   55.2924   11.7771 C   0  0  0  0  0  0  0  0  0  0  0  0
   17.1528   54.8823   10.1133 Cl  0  0  0  0  0  0  0  0  0  0  0  0
   16.3277   51.6038   14.4498 C   0  0  0  0  0  0  0  0  0  0  0  0
   15.1623   51.7072   13.9969 O   0  0  0  0  0  0  0  0  0  0  0  0
   15.0992   50.0035   17.4558 C   0  0  0  0  0  0  0  0  0  0  0  0
  1  2  1  0
  2  3  1  0
  3  4  2  0
  4  5  1  0
  5  6  2  0
  6  7  1  0
  7  8  1  0
  8  9  1  0
  9 10  2  0
  9 11  1  0
 11 12  1  0
 12 13  1  0
 13 14  1  0
 14 15  1  0
 11 16  1  0
 16 17  2  0
 16 18  1  0
 18 19  1  0
 19 20  1  0
 20 21  2  0
 21 22  1  0
 22 23  2  0
 23 24  1  0
 24 25  2  0
 25 26  1  0
 18 27  1  0
 27 28  2  0
  7 29  2  0
 29  3  1  0
 27  8  1  0
 25 20  1  0
M  END
$$$$
