
     RDKit          3D

 24 25  0  0  0  0  0  0  0  0999 V2000
   13.2627   92.7986   63.9521 C   0  0  0  0  0  0  0  0  0  0  0  0
   12.2971   93.8443   63.4771 C   0  0  0  0  0  0  0  0  0  0  0  0
   12.7276   94.6058   62.3901 O   0  0  0  0  0  0  0  0  0  0  0  0
   11.9700   95.6925   61.9306 C   0  0  0  0  0  0  0  0  0  0  0  0
   10.7897   96.0767   62.5023 C   0  0  0  0  0  0  0  0  0  0  0  0
   10.0909   97.1528   62.0079 C   0  0  0  0  0  0  0  0  0  0  0  0
   10.6090   97.8215   60.9358 C   0  0  0  0  0  0  0  0  0  0  0  0
    9.9101   98.8792   60.4595 F   0  0  0  0  0  0  0  0  0  0  0  0
   11.8126   97.4718   60.3124 C   0  0  0  0  0  0  0  0  0  0  0  0
   12.2298   98.2852   59.1799 C   0  0  0  0  0  0  0  0  0  0  0  0
   13.1380   99.1516   59.3990 O   0  0  0  0  0  0  0  0  0  0  0  0
   11.7211   98.2009   57.8669 N   0  0  0  0  0  0  0  0  0  0  0  0
   12.2377   98.8349   56.7074 C   0  0  0  0  0  0  0  0  0  0  0  0
   11.5844   99.0380   55.5271 C   0  0  0  0  0  0  0  0  0  0  0  0
   12.1681   99.6741   54.4288 C   0  0  0  0  0  0  0  0  0  0  0  0
   13.4604  100.1257   54.5162 C   0  0  0  0  0  0  0  0  0  0  0  0
   14.0601  100.7489   53.4674 F   0  0  0  0  0  0  0  0  0  0  0  0
   14.1593   99.9397   55.6965 C   0  0  0  0  0  0  0  0  0  0  0  0
   15.5252  100.4216   55.7772 C   0  0  0  0  0  0  0  0  0  0  0  0
   15.8969  101.6236   55.1543 N   0  0  0  0  0  0  0  0  0  0  0  0
   16.3709   99.7589   56.4058 O   0  0  0  0  0  0  0  0  0  0  0  0
   13.5428   99.3021   56.7666 C   0  0  0  0  0  0  0  0  0  0  0  0
   12.4610   96.4094   60.8334 C   0  0  0  0  0  0  0  0  0  0  0  0
   13.6354   95.9916   60.3002 F   0  0  0  0  0  0  0  0  0  0  0  0
  1  2  1  0
  2  3  1  0
  3  4  1  0
  4  5  2  0
  5  6  1  0
  6  7  2  0
  7  8  1  0
  7  9  1  0
  9 10  1  0
 10 11  2  0
 10 12  1  0
 12 13  1  0
 13 14  2  0
 14 15  1  0
 15 16  2  0
 16 17  1  0
 16 18  1  0
 18 19  1  0
 19 20  1  0
 19 21  2  0
 18 22  2  0
  9 23  2  0
 23 24  1  0
 23  4  1  0
 22 13  1  0
M  END
$$$$
