
     RDKit          3D

 36 37  0  0  0  0  0  0  0  0999 V2000
   39.9914   86.0004   50.6029 C   0  0  0  0  0  0  0  0  0  0  0  0
   40.7302   85.3418   49.4892 C   0  0  0  0  0  0  0  0  0  0  0  0
   40.8007   83.9088   49.6360 N   0  0  0  0  0  0  0  0  0  0  0  0
   39.5927   83.1528   49.4214 C   0  0  0  0  0  0  0  0  0  0  0  0
   39.0591   82.3738   50.4317 C   0  0  0  0  0  0  0  0  0  0  0  0
   37.8595   81.6680   50.2484 C   0  0  0  0  0  0  0  0  0  0  0  0
   37.1720   81.7311   49.0459 C   0  0  0  0  0  0  0  0  0  0  0  0
   35.9342   80.9958   48.8741 C   0  0  0  0  0  0  0  0  0  0  0  0
   35.8882   80.1425   47.9426 O   0  0  0  0  0  0  0  0  0  0  0  0
   34.7639   81.1671   49.6809 N   0  0  0  0  0  0  0  0  0  0  0  0
   33.6028   80.3625   49.4898 C   0  0  0  0  0  0  0  0  0  0  0  0
   32.5488   80.4019   50.5214 C   0  0  0  0  0  0  0  0  0  0  0  0
   32.3308   81.6669   51.2428 C   0  0  0  0  0  0  0  0  0  0  0  0
   32.4200   81.3216   52.7521 C   0  0  0  0  0  0  0  0  0  0  0  0
   31.7705   80.0821   52.9326 F   0  0  0  0  0  0  0  0  0  0  0  0
   31.5981   82.1771   53.4941 F   0  0  0  0  0  0  0  0  0  0  0  0
   33.6719   81.1890   53.2079 F   0  0  0  0  0  0  0  0  0  0  0  0
   31.0024   82.2578   50.9286 C   0  0  0  0  0  0  0  0  0  0  0  0
   30.0939   81.1700   51.1812 O   0  0  0  0  0  0  0  0  0  0  0  0
   30.7537   82.5114   49.4433 C   0  0  0  0  0  0  0  0  0  0  0  0
   30.4141   83.7696   49.1194 F   0  0  0  0  0  0  0  0  0  0  0  0
   31.7550   82.0470   48.6323 F   0  0  0  0  0  0  0  0  0  0  0  0
   29.6346   81.7397   49.0363 F   0  0  0  0  0  0  0  0  0  0  0  0
   30.5355   83.3885   51.7549 C   0  0  0  0  0  0  0  0  0  0  0  0
   29.2524   83.8219   51.5582 F   0  0  0  0  0  0  0  0  0  0  0  0
   30.6793   83.2022   53.1182 F   0  0  0  0  0  0  0  0  0  0  0  0
   31.3176   84.5480   51.5361 F   0  0  0  0  0  0  0  0  0  0  0  0
   33.3960   82.7112   51.0613 C   0  0  0  0  0  0  0  0  0  0  0  0
   34.7346   82.1582   50.7228 C   0  0  0  0  0  0  0  0  0  0  0  0
   37.6903   82.5001   48.0348 C   0  0  0  0  0  0  0  0  0  0  0  0
   38.8762   83.1828   48.2507 C   0  0  0  0  0  0  0  0  0  0  0  0
   42.0146   83.2616   50.0106 C   0  0  0  0  0  0  0  0  0  0  0  0
   42.7050   82.6664   48.7575 C   0  0  0  0  0  0  0  0  0  0  0  0
   43.8356   81.9240   49.1598 O   0  0  0  0  0  0  0  0  0  0  0  0
   43.0698   84.1583   50.6194 C   0  0  0  0  0  0  0  0  0  0  0  0
   44.3602   83.7476   50.4284 O   0  0  0  0  0  0  0  0  0  0  0  0
  1  2  1  0
  2  3  1  0
  3  4  1  0
  4  5  2  0
  5  6  1  0
  6  7  2  0
  7  8  1  0
  8  9  2  0
  8 10  1  0
 10 11  1  0
 11 12  1  0
 12 13  1  0
 13 14  1  0
 14 15  1  0
 14 16  1  0
 14 17  1  0
 13 18  1  0
 18 19  1  0
 18 20  1  0
 20 21  1  0
 20 22  1  0
 20 23  1  0
 18 24  1  0
 24 25  1  0
 24 26  1  0
 24 27  1  0
 13 28  1  0
 28 29  1  0
  7 30  1  0
 30 31  2  0
  3 32  1  0
 32 33  1  0
 33 34  1  0
 32 35  1  0
 35 36  1  0
 31  4  1  0
 29 10  1  0
M  END
$$$$
