
     RDKit          3D

 34 37  0  0  0  0  0  0  0  0999 V2000
   10.3426   58.3162   11.5910 C   0  0  0  0  0  0  0  0  0  0  0  0
   11.0913   57.2175   12.0674 O   0  0  0  0  0  0  0  0  0  0  0  0
   12.4716   57.3534   12.2585 C   0  0  0  0  0  0  0  0  0  0  0  0
   12.9556   58.4571   11.9410 O   0  0  0  0  0  0  0  0  0  0  0  0
   13.2598   56.3072   12.7767 N   0  0  0  0  0  0  0  0  0  0  0  0
   14.6152   56.3635   13.1120 C   0  0  0  0  0  0  0  0  0  0  0  0
   15.3182   57.5380   13.1598 C   0  0  0  0  0  0  0  0  0  0  0  0
   16.6799   57.5418   13.5024 C   0  0  0  0  0  0  0  0  0  0  0  0
   17.2735   56.3351   13.7847 C   0  0  0  0  0  0  0  0  0  0  0  0
   18.5618   55.9686   14.1496 C   0  0  0  0  0  0  0  0  0  0  0  0
   19.6042   56.9404   14.3051 N   0  0  0  0  0  0  0  0  0  0  0  0
   20.8615   56.6028   14.8752 C   0  0  0  0  0  0  0  0  0  0  0  0
   21.0746   55.3812   15.1083 O   0  0  0  0  0  0  0  0  0  0  0  0
   21.8642   57.6501   15.1754 C   0  0  0  0  0  0  0  0  0  0  0  0
   22.8475   58.0982   14.1835 C   0  0  0  0  0  0  0  0  0  0  0  0
   23.3345   57.1907   15.2857 C   0  0  0  0  0  0  0  0  0  0  0  0
   18.5777   54.6564   14.2980 N   0  0  0  0  0  0  0  0  0  0  0  0
   17.3965   54.1155   14.0601 N   0  0  0  0  0  0  0  0  0  0  0  0
   17.0471   52.7296   14.1245 C   0  0  0  0  0  0  0  0  0  0  0  0
   17.3206   52.1213   15.4430 C   0  0  0  0  0  0  0  0  0  0  0  0
   17.0818   52.7806   16.4862 O   0  0  0  0  0  0  0  0  0  0  0  0
   17.8470   50.8088   15.5526 N   0  0  0  0  0  0  0  0  0  0  0  0
   17.8748   50.0548   16.7880 C   0  0  0  0  0  0  0  0  0  0  0  0
   17.1610   48.7397   16.5975 C   0  0  0  0  0  0  0  0  0  0  0  0
   16.0394   48.5666   17.6062 C   0  0  0  0  0  0  0  0  0  0  0  0
   14.8411   47.9073   16.9602 C   0  0  0  0  0  0  0  0  0  0  0  0
   13.7381   47.8140   17.9485 C   0  0  0  0  0  0  0  0  0  0  0  0
   12.6522   48.6704   17.9030 C   0  0  0  0  0  0  0  0  0  0  0  0
   11.6251   48.5982   18.8077 C   0  0  0  0  0  0  0  0  0  0  0  0
   11.6785   47.6402   19.7936 C   0  0  0  0  0  0  0  0  0  0  0  0
   12.7468   46.7721   19.8658 C   0  0  0  0  0  0  0  0  0  0  0  0
   13.7639   46.8640   18.9481 C   0  0  0  0  0  0  0  0  0  0  0  0
   16.5697   55.1430   13.7387 C   0  0  0  0  0  0  0  0  0  0  0  0
   15.2636   55.1606   13.4077 C   0  0  0  0  0  0  0  0  0  0  0  0
  1  2  1  0
  2  3  1  0
  3  4  2  0
  3  5  1  0
  5  6  1  0
  6  7  2  0
  7  8  1  0
  8  9  2  0
  9 10  1  0
 10 11  1  0
 11 12  1  0
 12 13  2  0
 12 14  1  0
 14 15  1  0
 15 16  1  0
 10 17  2  0
 17 18  1  0
 18 19  1  0
 19 20  1  0
 20 21  2  0
 20 22  1  0
 22 23  1  0
 23 24  1  0
 24 25  1  0
 25 26  1  0
 26 27  1  0
 27 28  2  0
 28 29  1  0
 29 30  2  0
 30 31  1  0
 31 32  2  0
 18 33  1  0
 33 34  2  0
 34  6  1  0
 33  9  1  0
 16 14  1  0
 32 27  1  0
M  END
$$$$
