
     RDKit          3D

 22 23  0  0  0  0  0  0  0  0999 V2000
   14.3063   92.0714   63.5439 C   0  0  0  0  0  0  0  0  0  0  0  0
   13.0389   92.5285   64.0346 N   0  0  0  0  0  0  0  0  0  0  0  0
   13.0853   93.8798   64.5415 C   0  0  0  0  0  0  0  0  0  0  0  0
   12.8513   94.8762   63.4416 C   0  0  0  0  0  0  0  0  0  0  0  0
   13.9090   95.4499   62.7658 C   0  0  0  0  0  0  0  0  0  0  0  0
   13.6918   96.3658   61.7557 C   0  0  0  0  0  0  0  0  0  0  0  0
   12.4058   96.7237   61.4043 C   0  0  0  0  0  0  0  0  0  0  0  0
   12.1664   97.6891   60.3385 C   0  0  0  0  0  0  0  0  0  0  0  0
   13.1259   98.3117   59.6349 N   0  0  0  0  0  0  0  0  0  0  0  0
   12.5568   99.1330   58.7328 C   0  0  0  0  0  0  0  0  0  0  0  0
   13.2036  100.0223   57.7355 C   0  0  0  0  0  0  0  0  0  0  0  0
   13.3785   99.2968   56.5199 N   0  0  0  0  0  0  0  0  0  0  0  0
   14.1562   98.1033   56.6094 C   0  0  0  0  0  0  0  0  0  0  0  0
   13.6315  100.0890   55.3633 C   0  0  0  0  0  0  0  0  0  0  0  0
   13.7716   99.2846   54.1008 C   0  0  0  0  0  0  0  0  0  0  0  0
   14.5619   99.9844   53.1039 N   0  0  0  0  0  0  0  0  0  0  0  0
   14.2241  101.3874   53.0379 C   0  0  0  0  0  0  0  0  0  0  0  0
   15.9728   99.8765   53.3548 C   0  0  0  0  0  0  0  0  0  0  0  0
   11.2031   98.9841   58.9172 C   0  0  0  0  0  0  0  0  0  0  0  0
   11.0177   98.1081   59.8904 O   0  0  0  0  0  0  0  0  0  0  0  0
   11.3718   96.1334   62.0974 C   0  0  0  0  0  0  0  0  0  0  0  0
   11.5695   95.2171   63.1089 C   0  0  0  0  0  0  0  0  0  0  0  0
  1  2  1  0
  2  3  1  0
  3  4  1  0
  4  5  2  0
  5  6  1  0
  6  7  2  0
  7  8  1  0
  8  9  2  0
  9 10  1  0
 10 11  1  0
 11 12  1  0
 12 13  1  0
 12 14  1  0
 14 15  1  0
 15 16  1  0
 16 17  1  0
 16 18  1  0
 10 19  2  0
 19 20  1  0
  7 21  1  0
 21 22  2  0
 22  4  1  0
 20  8  1  0
M  END
$$$$
