
     RDKit          3D

 20 21  0  0  0  0  0  0  0  0999 V2000
   35.1862   82.1225   54.1366 C   0  0  0  0  0  0  0  0  0  0  0  0
   36.0800   82.3068   52.9549 C   0  0  0  0  0  0  0  0  0  0  0  0
   37.4393   82.1586   53.0498 C   0  0  0  0  0  0  0  0  0  0  0  0
   38.2311   82.3453   51.8995 C   0  0  0  0  0  0  0  0  0  0  0  0
   37.7116   82.6684   50.6875 C   0  0  0  0  0  0  0  0  0  0  0  0
   38.4536   82.8673   49.5038 N   0  0  0  0  0  0  0  0  0  0  0  0
   38.0453   82.5807   48.1896 C   0  0  0  0  0  0  0  0  0  0  0  0
   36.8951   82.1610   47.9709 O   0  0  0  0  0  0  0  0  0  0  0  0
   38.9702   82.7685   47.0218 C   0  0  0  0  0  0  0  0  0  0  0  0
   39.1451   81.6201   46.0578 C   0  0  0  0  0  0  0  0  0  0  0  0
   38.2981   82.7666   45.6586 C   0  0  0  0  0  0  0  0  0  0  0  0
   36.3144   82.8069   50.6515 C   0  0  0  0  0  0  0  0  0  0  0  0
   35.5099   82.6343   51.7443 C   0  0  0  0  0  0  0  0  0  0  0  0
   34.0917   82.7808   51.6813 N   0  0  0  0  0  0  0  0  0  0  0  0
   33.2766   81.9366   50.8660 C   0  0  0  0  0  0  0  0  0  0  0  0
   33.8695   80.9871   50.2933 O   0  0  0  0  0  0  0  0  0  0  0  0
   31.8340   82.1340   50.6842 C   0  0  0  0  0  0  0  0  0  0  0  0
   31.2656   83.1531   51.6502 C   0  0  0  0  0  0  0  0  0  0  0  0
   31.1141   80.8289   50.9494 C   0  0  0  0  0  0  0  0  0  0  0  0
   31.4643   82.5755   49.2853 C   0  0  0  0  0  0  0  0  0  0  0  0
  1  2  1  0
  2  3  2  0
  3  4  1  0
  4  5  2  0
  5  6  1  0
  6  7  1  0
  7  8  2  0
  7  9  1  0
  9 10  1  0
 10 11  1  0
  5 12  1  0
 12 13  2  0
 13 14  1  0
 14 15  1  0
 15 16  2  0
 15 17  1  0
 17 18  1  0
 17 19  1  0
 17 20  1  0
 13  2  1  0
 11  9  1  0
M  END
$$$$
