
     RDKit          3D

 27 29  0  0  0  0  0  0  0  0999 V2000
   40.2473   79.5431   51.6986 C   0  0  0  0  0  0  0  0  0  0  0  0
   38.9598   80.0675   51.6885 O   0  0  0  0  0  0  0  0  0  0  0  0
   38.4803   81.0942   52.4951 C   0  0  0  0  0  0  0  0  0  0  0  0
   39.3272   81.6296   53.4255 C   0  0  0  0  0  0  0  0  0  0  0  0
   38.9334   82.6489   54.2601 C   0  0  0  0  0  0  0  0  0  0  0  0
   37.6548   83.1528   54.1662 C   0  0  0  0  0  0  0  0  0  0  0  0
   36.8089   82.6101   53.2293 C   0  0  0  0  0  0  0  0  0  0  0  0
   37.1957   81.5796   52.3813 C   0  0  0  0  0  0  0  0  0  0  0  0
   36.2653   81.0519   51.3828 C   0  0  0  0  0  0  0  0  0  0  0  0
   34.8740   81.2925   51.5240 N   0  0  0  0  0  0  0  0  0  0  0  0
   34.1525   80.2284   52.3048 C   0  0  0  0  0  0  0  0  0  0  0  0
   34.0427   82.3052   51.0630 C   0  0  0  0  0  0  0  0  0  0  0  0
   34.6719   83.2406   50.3911 O   0  0  0  0  0  0  0  0  0  0  0  0
   32.6148   82.5605   51.1664 C   0  0  0  0  0  0  0  0  0  0  0  0
   31.9171   82.3096   49.8546 C   0  0  0  0  0  0  0  0  0  0  0  0
   31.9509   83.1063   48.7663 C   0  0  0  0  0  0  0  0  0  0  0  0
   31.2598   82.7440   47.6180 C   0  0  0  0  0  0  0  0  0  0  0  0
   30.5324   81.5855   47.5508 C   0  0  0  0  0  0  0  0  0  0  0  0
   29.8488   81.2116   46.4385 F   0  0  0  0  0  0  0  0  0  0  0  0
   30.4947   80.7726   48.6529 C   0  0  0  0  0  0  0  0  0  0  0  0
   31.1750   81.1228   49.7928 C   0  0  0  0  0  0  0  0  0  0  0  0
   31.1154   80.3037   50.8502 F   0  0  0  0  0  0  0  0  0  0  0  0
   32.2672   83.9492   51.6301 C   0  0  0  0  0  0  0  0  0  0  0  0
   30.7771   84.1289   51.3240 C   0  0  0  0  0  0  0  0  0  0  0  0
   30.0435   83.0625   51.8128 O   0  0  0  0  0  0  0  0  0  0  0  0
   30.7021   82.2379   52.6893 C   0  0  0  0  0  0  0  0  0  0  0  0
   31.9647   81.6205   52.1926 C   0  0  0  0  0  0  0  0  0  0  0  0
  1  2  1  0
  2  3  1  0
  3  4  2  0
  4  5  1  0
  5  6  2  0
  6  7  1  0
  7  8  2  0
  8  9  1  0
  9 10  1  0
 10 11  1  0
 10 12  1  0
 12 13  2  0
 12 14  1  0
 14 15  1  0
 15 16  2  0
 16 17  1  0
 17 18  2  0
 18 19  1  0
 18 20  1  0
 20 21  2  0
 21 22  1  0
 14 23  1  0
 23 24  1  0
 24 25  1  0
 25 26  1  0
 26 27  1  0
  8  3  1  0
 27 14  1  0
 21 15  1  0
M  END
$$$$
