
     RDKit          3D

 25 27  0  0  0  0  0  0  0  0999 V2000
   13.9416   92.3684   66.6333 C   0  0  0  0  0  0  0  0  0  0  0  0
   13.8401   93.1505   65.3536 C   0  0  0  0  0  0  0  0  0  0  0  0
   15.2146   93.4824   64.7796 C   0  0  0  0  0  0  0  0  0  0  0  0
   13.0658   92.4529   64.2879 C   0  0  0  0  0  0  0  0  0  0  0  0
   12.4936   93.2944   63.2888 N   0  0  0  0  0  0  0  0  0  0  0  0
   13.1004   93.7394   62.0409 C   0  0  0  0  0  0  0  0  0  0  0  0
   12.6919   95.2193   62.0675 C   0  0  0  0  0  0  0  0  0  0  0  0
   12.9263   95.8762   60.7687 C   0  0  0  0  0  0  0  0  0  0  0  0
   14.0605   95.7541   60.2501 O   0  0  0  0  0  0  0  0  0  0  0  0
   11.9598   96.6299   60.0755 N   0  0  0  0  0  0  0  0  0  0  0  0
   12.2521   97.3760   58.8725 C   0  0  0  0  0  0  0  0  0  0  0  0
   11.8500   98.7962   58.9689 C   0  0  0  0  0  0  0  0  0  0  0  0
   11.2278   99.3313   60.0940 C   0  0  0  0  0  0  0  0  0  0  0  0
   10.8708  100.6646   60.1402 C   0  0  0  0  0  0  0  0  0  0  0  0
   10.3100  101.1287   61.1647 O   0  0  0  0  0  0  0  0  0  0  0  0
   11.1028  101.5011   59.1155 N   0  0  0  0  0  0  0  0  0  0  0  0
   11.7024  101.0049   58.0200 C   0  0  0  0  0  0  0  0  0  0  0  0
   11.9249  101.8940   56.9881 C   0  0  0  0  0  0  0  0  0  0  0  0
   12.5387  101.4230   55.8458 C   0  0  0  0  0  0  0  0  0  0  0  0
   12.9200  100.0846   55.7458 C   0  0  0  0  0  0  0  0  0  0  0  0
   12.6858   99.2148   56.7938 C   0  0  0  0  0  0  0  0  0  0  0  0
   12.0799   99.6707   57.9270 C   0  0  0  0  0  0  0  0  0  0  0  0
   11.2165   95.0964   62.3862 C   0  0  0  0  0  0  0  0  0  0  0  0
   11.1889   93.9037   63.2729 C   0  0  0  0  0  0  0  0  0  0  0  0
   10.1834   93.4820   63.9165 O   0  0  0  0  0  0  0  0  0  0  0  0
  1  2  1  0
  2  3  1  0
  2  4  1  0
  4  5  1  0
  5  6  1  0
  6  7  1  0
  7  8  1  0
  8  9  2  0
  8 10  1  0
 10 11  1  0
 11 12  1  0
 12 13  2  0
 13 14  1  0
 14 15  2  0
 14 16  1  0
 16 17  1  0
 17 18  2  0
 18 19  1  0
 19 20  2  0
 20 21  1  0
 21 22  2  0
  7 23  1  0
 23 24  1  0
 24 25  2  0
 24  5  1  0
 22 12  1  0
 22 17  1  0
M  END
$$$$
