
     RDKit          3D

 21 23  0  0  0  0  0  0  0  0999 V2000
   13.6130   90.3668   66.7529 C   0  0  0  0  0  0  0  0  0  0  0  0
   12.9378   90.4699   65.5483 O   0  0  0  0  0  0  0  0  0  0  0  0
   13.7171   90.9354   64.5071 C   0  0  0  0  0  0  0  0  0  0  0  0
   13.4941   92.3950   64.2027 C   0  0  0  0  0  0  0  0  0  0  0  0
   12.4848   92.5517   63.1520 N   0  0  0  0  0  0  0  0  0  0  0  0
   13.1816   92.8809   61.9096 C   0  0  0  0  0  0  0  0  0  0  0  0
   14.0357   94.1072   62.0762 C   0  0  0  0  0  0  0  0  0  0  0  0
   13.1419   95.2806   62.4342 C   0  0  0  0  0  0  0  0  0  0  0  0
   13.1517   96.2924   61.2736 C   0  0  0  0  0  0  0  0  0  0  0  0
   11.9164   96.9242   61.1797 O   0  0  0  0  0  0  0  0  0  0  0  0
   11.8271   97.8888   60.0920 C   0  0  0  0  0  0  0  0  0  0  0  0
   12.1535   98.1369   59.0507 N   0  0  0  0  0  0  0  0  0  0  0  0
   11.8570   99.1970   58.2767 C   0  0  0  0  0  0  0  0  0  0  0  0
   11.0255  100.1059   58.8609 C   0  0  0  0  0  0  0  0  0  0  0  0
   10.7333   99.3894   60.4568 S   0  0  0  0  0  0  0  0  0  0  0  0
   10.5656  101.3165   58.2073 C   0  0  0  0  0  0  0  0  0  0  0  0
   11.4157  101.7104   57.0536 C   0  0  0  0  0  0  0  0  0  0  0  0
   11.6524  100.4603   56.2158 C   0  0  0  0  0  0  0  0  0  0  0  0
   12.3011   99.4695   56.9575 O   0  0  0  0  0  0  0  0  0  0  0  0
   11.7375   94.7741   62.5855 C   0  0  0  0  0  0  0  0  0  0  0  0
   11.5889   93.6361   63.5302 C   0  0  0  0  0  0  0  0  0  0  0  0
  1  2  1  0
  2  3  1  0
  3  4  1  0
  4  5  1  0
  5  6  1  0
  6  7  1  0
  7  8  1  0
  8  9  1  0
  9 10  1  0
 10 11  1  0
 11 12  2  0
 12 13  1  0
 13 14  2  0
 14 15  1  0
 14 16  1  0
 16 17  1  0
 17 18  1  0
 18 19  1  0
  8 20  1  0
 20 21  1  0
 21  5  1  0
 15 11  1  0
 19 13  1  0
M  END
$$$$
