
     RDKit          3D

 33 37  0  0  0  0  0  0  0  0999 V2000
   19.3695   49.3495   18.1236 C   0  0  0  0  0  0  0  0  0  0  0  0
   18.0955   49.7557   17.6654 O   0  0  0  0  0  0  0  0  0  0  0  0
   16.9568   49.1183   18.1377 C   0  0  0  0  0  0  0  0  0  0  0  0
   17.0621   47.9614   18.8860 C   0  0  0  0  0  0  0  0  0  0  0  0
   15.9221   47.3552   19.3381 C   0  0  0  0  0  0  0  0  0  0  0  0
   14.6783   47.8840   19.0560 C   0  0  0  0  0  0  0  0  0  0  0  0
   13.2283   47.1040   19.6368 Cl  0  0  0  0  0  0  0  0  0  0  0  0
   14.6067   49.0557   18.2964 C   0  0  0  0  0  0  0  0  0  0  0  0
   15.7371   49.6814   17.8321 C   0  0  0  0  0  0  0  0  0  0  0  0
   15.6512   50.8991   17.0432 C   0  0  0  0  0  0  0  0  0  0  0  0
   14.6468   51.7996   16.9956 N   0  0  0  0  0  0  0  0  0  0  0  0
   14.9616   52.7646   16.1523 N   0  0  0  0  0  0  0  0  0  0  0  0
   16.1780   52.5248   15.6246 C   0  0  0  0  0  0  0  0  0  0  0  0
   16.9117   53.3556   14.6351 C   0  0  2  0  0  0  0  0  0  0  0  0
   17.6638   54.4819   15.3577 C   0  0  0  0  0  0  0  0  0  0  0  0
   16.2844   55.1459   15.2496 C   0  0  0  0  0  0  0  0  0  0  0  0
   16.1257   54.4065   14.0210 N   0  0  0  0  0  0  0  0  0  0  0  0
   15.4812   54.6415   12.7901 C   0  0  0  0  0  0  0  0  0  0  0  0
   15.2565   53.7047   12.0064 O   0  0  0  0  0  0  0  0  0  0  0  0
   15.0840   56.0005   12.4540 C   0  0  0  0  0  0  0  0  0  0  0  0
   13.9375   56.5822   12.9549 C   0  0  0  0  0  0  0  0  0  0  0  0
   13.5519   57.8724   12.6414 C   0  0  0  0  0  0  0  0  0  0  0  0
   12.3167   58.4894   13.1852 C   0  0  0  0  0  0  0  0  0  0  0  0
   14.3636   58.5885   11.7900 C   0  0  0  0  0  0  0  0  0  0  0  0
   13.9754   59.9793   11.4339 C   0  0  0  0  0  0  0  0  0  0  0  0
   15.5050   58.0621   11.2682 C   0  0  0  0  0  0  0  0  0  0  0  0
   15.8662   56.7559   11.6048 C   0  0  0  0  0  0  0  0  0  0  0  0
   17.0452   56.1519   11.0923 N   0  0  0  0  0  0  0  0  0  0  0  0
   17.0881   55.3169   10.0689 N   0  0  0  0  0  0  0  0  0  0  0  0
   18.3605   54.9249    9.8371 C   0  0  0  0  0  0  0  0  0  0  0  0
   19.1282   55.5601   10.7743 C   0  0  0  0  0  0  0  0  0  0  0  0
   18.2869   56.2982   11.5196 N   0  0  0  0  0  0  0  0  0  0  0  0
   16.5835   51.3753   16.1846 N   0  0  0  0  0  0  0  0  0  0  0  0
  1  2  1  0
  2  3  1  0
  3  4  2  0
  4  5  1  0
  5  6  2  0
  6  7  1  0
  6  8  1  0
  8  9  2  0
  9 10  1  0
 10 11  2  0
 11 12  1  0
 12 13  2  0
 14 13  1  1
 14 15  1  0
 15 16  1  0
 16 17  1  0
 17 18  1  0
 18 19  2  0
 18 20  1  0
 20 21  2  0
 21 22  1  0
 22 23  1  0
 22 24  2  0
 24 25  1  0
 24 26  1  0
 26 27  2  0
 27 28  1  0
 28 29  1  0
 29 30  2  0
 30 31  1  0
 31 32  2  0
 13 33  1  0
  9  3  1  0
 33 10  1  0
 17 14  1  0
 27 20  1  0
 32 28  1  0
M  END
$$$$
