
     RDKit          3D

 21 22  0  0  0  0  0  0  0  0999 V2000
   37.6489   81.5082   53.9741 C   0  0  0  0  0  0  0  0  0  0  0  0
   37.6782   82.3091   52.7457 O   0  0  0  0  0  0  0  0  0  0  0  0
   36.3862   82.4380   52.1534 C   0  0  0  0  0  0  0  0  0  0  0  0
   35.5750   83.2353   51.9481 C   0  0  0  0  0  0  0  0  0  0  0  0
   34.2968   83.3488   51.2808 C   0  0  0  0  0  0  0  0  0  0  0  0
   34.0147   82.0113   50.6854 C   0  0  0  0  0  0  0  0  0  0  0  0
   32.9348   82.0279   49.7234 C   0  0  0  0  0  0  0  0  0  0  0  0
   33.5024   82.0686   48.4015 C   0  0  0  0  0  0  0  0  0  0  0  0
   32.7837   82.0081   47.2574 C   0  0  0  0  0  0  0  0  0  0  0  0
   31.3806   81.9001   47.4071 C   0  0  0  0  0  0  0  0  0  0  0  0
   30.7672   81.5227   46.0328 C   0  0  0  0  0  0  0  0  0  0  0  0
   30.1317   80.3813   46.2382 C   0  0  0  0  0  0  0  0  0  0  0  0
   29.4995   79.1990   46.4436 N   0  0  0  0  0  0  0  0  0  0  0  0
   30.9389   81.8748   48.6422 C   0  0  0  0  0  0  0  0  0  0  0  0
   29.6195   81.7595   48.6986 O   0  0  0  0  0  0  0  0  0  0  0  0
   31.5991   81.9346   49.8211 N   0  0  0  0  0  0  0  0  0  0  0  0
   30.9065   82.0448   51.0390 C   0  0  0  0  0  0  0  0  0  0  0  0
   30.4129   80.6767   51.5570 C   0  0  0  0  0  0  0  0  0  0  0  0
   29.8901   83.1240   51.2303 C   0  0  0  0  0  0  0  0  0  0  0  0
   34.8981   81.1553   50.9204 C   0  0  0  0  0  0  0  0  0  0  0  0
   36.1184   80.9640   51.5797 C   0  0  0  0  0  0  0  0  0  0  0  0
  1  2  1  0
  2  3  1  0
  3  4  2  0
  4  5  1  0
  5  6  2  0
  6  7  1  0
  7  8  2  0
  8  9  1  0
  9 10  2  0
 10 11  1  0
 11 12  1  0
 12 13  3  0
 10 14  1  0
 14 15  2  0
 14 16  1  0
 16 17  1  0
 17 18  1  0
 17 19  1  0
  6 20  1  0
 20 21  2  0
 21  3  1  0
 16  7  1  0
M  END
$$$$
