
     RDKit          3D

 29 33  0  0  0  0  0  0  0  0999 V2000
   15.2868   55.3627   13.9260 O   0  0  0  0  0  0  0  0  0  0  0  0
   15.5427   55.1289   12.6948 C   0  0  0  0  0  0  0  0  0  0  0  0
   14.9577   56.0376   11.7783 N   0  0  0  0  0  0  0  0  0  0  0  0
   14.0044   57.0227   12.1760 C   0  0  0  0  0  0  0  0  0  0  0  0
   14.2133   58.0631   13.0573 C   0  0  0  0  0  0  0  0  0  0  0  0
   13.0462   58.8000   13.1824 C   0  0  0  0  0  0  0  0  0  0  0  0
   12.8582   60.0066   14.0413 C   0  0  0  0  0  0  0  0  0  0  0  0
   12.5648   61.2662   13.2616 C   0  0  0  0  0  0  0  0  0  0  0  0
   11.5358   60.6444   14.1552 C   0  0  0  0  0  0  0  0  0  0  0  0
   12.1615   58.1880   12.3747 N   0  0  0  0  0  0  0  0  0  0  0  0
   12.7273   57.1363   11.7787 N   0  0  0  0  0  0  0  0  0  0  0  0
   16.3892   53.9836   12.3219 C   0  0  1  0  0  0  0  0  0  0  0  0
   17.6577   54.4138   11.6141 C   0  0  0  0  0  0  0  0  0  0  0  0
   18.7283   54.4537   12.6521 C   0  0  0  0  0  0  0  0  0  0  0  0
   18.2481   53.6790   13.8453 C   0  0  0  0  0  0  0  0  0  0  0  0
   16.8675   53.1656   13.5078 C   0  0  1  0  0  0  0  0  0  0  0  0
   15.9207   53.2261   14.6298 C   0  0  0  0  0  0  0  0  0  0  0  0
   15.5057   54.3416   15.0240 O   0  0  0  0  0  0  0  0  0  0  0  0
   15.4718   52.0641   15.2682 N   0  0  0  0  0  0  0  0  0  0  0  0
   16.1245   50.7639   15.0575 C   0  0  0  0  0  0  0  0  0  0  0  0
   15.0273   49.7288   15.3575 C   0  0  0  0  0  0  0  0  0  0  0  0
   14.8471   49.7520   16.7996 N   0  0  0  0  0  0  0  0  0  0  0  0
   13.9628   48.7428   17.2878 C   0  0  0  0  0  0  0  0  0  0  0  0
   13.4935   49.1308   18.6704 C   0  0  0  0  0  0  0  0  0  0  0  0
   14.6832   48.6908   19.5304 C   0  0  0  0  0  0  0  0  0  0  0  0
   15.2555   47.4599   18.8755 C   0  0  0  0  0  0  0  0  0  0  0  0
   14.6069   47.4180   17.5288 C   0  0  0  0  0  0  0  0  0  0  0  0
   14.4803   51.0760   17.2575 C   0  0  0  0  0  0  0  0  0  0  0  0
   14.3541   52.0967   16.1673 C   0  0  0  0  0  0  0  0  0  0  0  0
  1  2  2  0
  2  3  1  0
  3  4  1  0
  4  5  1  0
  5  6  2  0
  6  7  1  0
  7  8  1  0
  8  9  1  0
  6 10  1  0
 10 11  1  0
 12  2  1  1
 12 13  1  0
 13 14  1  0
 14 15  1  0
 15 16  1  0
 16 17  1  1
 17 18  2  0
 17 19  1  0
 19 20  1  0
 20 21  1  0
 21 22  1  0
 22 23  1  0
 23 24  1  0
 24 25  1  0
 25 26  1  0
 26 27  1  0
 22 28  1  0
 28 29  1  0
 11  4  2  0
 16 12  1  0
 29 19  1  0
  9  7  1  0
 27 23  1  0
M  END
$$$$
