
     RDKit          3D

 27 31  0  0  0  0  0  0  0  0999 V2000
   15.3389   51.7931   16.8583 O   0  0  0  0  0  0  0  0  0  0  0  0
   16.1149   51.0090   16.2821 C   0  0  0  0  0  0  0  0  0  0  0  0
   16.4028   51.2241   14.8447 C   0  0  0  0  0  0  0  0  0  0  0  0
   16.2880   52.6642   14.6117 N   0  0  0  0  0  0  0  0  0  0  0  0
   15.2428   53.2969   14.0552 C   0  0  0  0  0  0  0  0  0  0  0  0
   15.4820   54.6511   14.0004 C   0  0  0  0  0  0  0  0  0  0  0  0
   14.6403   55.7186   13.4656 C   0  0  0  0  0  0  0  0  0  0  0  0
   13.4286   55.4322   13.1872 O   0  0  0  0  0  0  0  0  0  0  0  0
   15.1117   57.0305   13.2520 N   0  0  0  0  0  0  0  0  0  0  0  0
   14.1933   57.9892   12.7749 C   0  0  0  0  0  0  0  0  0  0  0  0
   14.0773   59.1770   12.7143 N   0  0  0  0  0  0  0  0  0  0  0  0
   13.1014   59.8684   12.1957 C   0  0  0  0  0  0  0  0  0  0  0  0
   12.0565   59.1595   11.6396 C   0  0  0  0  0  0  0  0  0  0  0  0
   12.6206   57.4513   11.9389 S   0  0  0  0  0  0  0  0  0  0  0  0
   16.7152   54.7880   14.5506 N   0  0  0  0  0  0  0  0  0  0  0  0
   17.1727   53.5981   14.9048 N   0  0  0  0  0  0  0  0  0  0  0  0
   16.7052   49.9391   16.9887 N   0  0  0  0  0  0  0  0  0  0  0  0
   15.9329   49.0354   17.7741 C   0  0  0  0  0  0  0  0  0  0  0  0
   15.1040   49.7198   18.8370 C   0  0  0  0  0  0  0  0  0  0  0  0
   14.4788   48.7074   19.7357 C   0  0  0  0  0  0  0  0  0  0  0  0
   13.5188   47.8822   18.8669 C   0  0  0  0  0  0  0  0  0  0  0  0
   14.3104   47.1961   17.7893 C   0  0  0  0  0  0  0  0  0  0  0  0
   15.2993   46.2718   18.4231 C   0  0  0  0  0  0  0  0  0  0  0  0
   16.2268   47.0793   19.3384 C   0  0  0  0  0  0  0  0  0  0  0  0
   15.4498   47.7874   20.4210 C   0  0  0  0  0  0  0  0  0  0  0  0
   16.9142   48.0998   18.4915 C   0  0  0  0  0  0  0  0  0  0  0  0
   15.0530   48.1880   16.9160 C   0  0  0  0  0  0  0  0  0  0  0  0
  1  2  2  0
  2  3  1  0
  3  4  1  0
  4  5  1  0
  5  6  2  0
  6  7  1  0
  7  8  2  0
  7  9  1  0
  9 10  1  0
 10 11  2  0
 11 12  1  0
 12 13  2  0
 13 14  1  0
  6 15  1  0
 15 16  2  0
  2 17  1  0
 17 18  1  0
 18 19  1  0
 19 20  1  0
 20 21  1  0
 21 22  1  0
 22 23  1  0
 23 24  1  0
 24 25  1  0
 24 26  1  0
 22 27  1  0
 16  4  1  0
 26 18  1  0
 14 10  1  0
 27 18  1  0
 25 20  1  0
M  END
$$$$
